/*---------------------------------------------------------------------------*\
  =========                 |
  \\      /  F ield         | OpenFOAM: The Open Source CFD Toolbox
   \\    /   O peration     | Website:  https://openfoam.org
    \\  /    A nd           | Version:  6
     \\/     M anipulation  |
\*---------------------------------------------------------------------------*/
Build  : 6-47517f2ebb1b
Exec   : pimpleFoam -case Fluid
Date   : Mar 06 2020
Time   : 12:54:19
Host   : "debian"
PID    : 5866
I/O    : uncollated
Case   : ./Fluid
nProcs : 1
sigFpe : Enabling floating point exception trapping (FOAM_SIGFPE).
fileModificationChecking : Monitoring run-time modified files using timeStampMaster (fileModificationSkew 10)
allowSystemOperations : Allowing user-supplied system call operations

// * * * * * * * * * * * * * * * * * * * * * * * * * * * * * * * * * * * * * //
Create time

Create mesh for time = 0

Selecting dynamicFvMesh dynamicMotionSolverFvMesh
Selecting motion solver: displacementLaplacian
Selecting motion diffusion: quadratic
Selecting motion diffusion: inverseDistance

PIMPLE: Convergence criteria found
        U: tolerance 5e-05
        p: tolerance 0.0005


PIMPLE: No corrector convergence criteria found
        Calclations will do 50 corrections

Reading field p

Reading field U

Reading/calculating face flux field phi

Selecting incompressible transport model Newtonian
Selecting turbulence model type laminar
Selecting laminar stress model Stokes
No MRF models present

No finite volume options present
Constructing face velocity Uf

Courant Number mean: 0 max: 0

Starting time loop

---[preciceAdapter] The preciceAdapter was loaded.
Registered objects: 
26
(
solutionControl
points
neighbour
faceDiffusivity
MRFProperties
pointMesh
pointDisplacement
faces
U
turbulenceProperties
fvSchemes
fvOptions
faceZones
fvSolution
Uf
nu
phi
owner
data
cellZones
boundary
dynamicMeshDict
p
cellDisplacement
pointZones
transportProperties
)

---[preciceAdapter] Reading the adapter's YAML configuration file ./Fluid/precice-adapter-config.yml...
---[preciceAdapter] [DEBUG] Checking the adapter's YAML configuration file...
---[preciceAdapter] [DEBUG]   participant : Fluid
---[preciceAdapter] [DEBUG]   precice-config-file : precice-config.xml
---[preciceAdapter] [DEBUG]   interfaces : 
---[preciceAdapter] [DEBUG]   - mesh      : Fluid-Mesh-Centers
---[preciceAdapter] [DEBUG]     locations : faceCenters
---[preciceAdapter] [DEBUG]     Provide mesh connectivity : 0
---[preciceAdapter] [DEBUG]     patches   : 
---[preciceAdapter] [DEBUG]       flap
---[preciceAdapter] [DEBUG]     write-data : 
---[preciceAdapter] [DEBUG]       Force
---[preciceAdapter] [DEBUG]   - mesh      : Fluid-Mesh-Nodes;
---[preciceAdapter] [DEBUG]     locations : faceCenters
---[preciceAdapter] [DEBUG]     Provide mesh connectivity : 0
---[preciceAdapter] [DEBUG]     patches   : 
---[preciceAdapter] [DEBUG]       flap
---[preciceAdapter] [DEBUG]     read-data : 
---[preciceAdapter] [DEBUG]       Displacement
---[preciceAdapter] [DEBUG]     subcycling : 1
---[preciceAdapter] [DEBUG]     prevent early exit : 1
---[preciceAdapter] [DEBUG]     evaluate boundaries : 1
---[preciceAdapter] [DEBUG]     disable checkpointing : 0
---[preciceAdapter] [DEBUG]     CHT module enabled : 0
---[preciceAdapter] [DEBUG]     FSI module enabled : 1
---[preciceAdapter] [DEBUG] Configuring the FSI module...
---[preciceAdapter] [DEBUG]     user-defined solver type : none
---[preciceAdapter] [DEBUG]     pointDisplacement field name : pointDisplacement
---[preciceAdapter] [DEBUG] Determining the solver type...
---[preciceAdapter] [DEBUG] Found the transportProperties dictionary.
---[preciceAdapter] [DEBUG] Found the turbulenceProperties dictionary.
---[preciceAdapter] [DEBUG] Did not find the thermophysicalProperties dictionary.
---[preciceAdapter] [DEBUG] This is an incompressible flow solver, as turbulence and transport properties are provided.
---[preciceAdapter] [DEBUG] Checking the timestep type (fixed vs adjustable)...
---[preciceAdapter] [DEBUG]   Timestep type: fixed.
---[preciceAdapter] [DEBUG] Creating the preCICE solver interface...
---[preciceAdapter] [DEBUG]   Number of processes: 1
---[preciceAdapter] [DEBUG]   MPI rank: 0
---[preciceAdapter] [DEBUG]   preCICE solver interface was created.
---[preciceAdapter] [DEBUG] Configuring preCICE...
---[precice] [31mERROR: [0m Tag <time-window-size> is unknown
