/*---------------------------------------------------------------------------*\
  =========                 |
  \\      /  F ield         | OpenFOAM: The Open Source CFD Toolbox
   \\    /   O peration     | Website:  https://openfoam.org
    \\  /    A nd           | Version:  6
     \\/     M anipulation  |
\*---------------------------------------------------------------------------*/
Build  : 6-47517f2ebb1b
Exec   : checkMesh -case Fluid
Date   : Mar 06 2020
Time   : 12:54:19
Host   : "debian"
PID    : 5859
I/O    : uncollated
Case   : ./Fluid
nProcs : 1
sigFpe : Enabling floating point exception trapping (FOAM_SIGFPE).
fileModificationChecking : Monitoring run-time modified files using timeStampMaster (fileModificationSkew 10)
allowSystemOperations : Allowing user-supplied system call operations

// * * * * * * * * * * * * * * * * * * * * * * * * * * * * * * * * * * * * * //
Create time

Create polyMesh for time = 0

Time = 0

Mesh stats
    points:           13120
    internal points:  0
    faces:            25478
    internal faces:   12358
    cells:            6306
    faces per cell:   6
    boundary patches: 8
    point zones:      0
    face zones:       0
    cell zones:       0

Overall number of cells of each type:
    hexahedra:     6306
    prisms:        0
    wedges:        0
    pyramids:      0
    tet wedges:    0
    tetrahedra:    0
    polyhedra:     0

Checking topology...
    Boundary definition OK.
    Cell to face addressing OK.
    Point usage OK.
    Upper triangular ordering OK.
    Face vertices OK.
    Number of regions: 1 (OK).

Checking patch topology for multiply connected surfaces...
    Patch               Faces    Points   Surface topology                  
    front               6306     6560     ok (non-closed singly connected)  
    back                6306     6560     ok (non-closed singly connected)  
    inlet               44       90       ok (non-closed singly connected)  
    outlet              47       96       ok (non-closed singly connected)  
    top                 129      260      ok (non-closed singly connected)  
    bottom              129      260      ok (non-closed singly connected)  
    flap                90       182      ok (non-closed singly connected)  
    cylinder            69       140      ok (non-closed singly connected)  

Checking geometry...
    Overall domain bounding box (0 0 -0.005) (2.5 0.41 0.005)
    Mesh has 2 geometric (non-empty/wedge) directions (1 1 0)
    Mesh has 2 solution (non-empty) directions (1 1 0)
    All edges aligned with or perpendicular to non-empty directions.
    Boundary openness (-7.591701217e-19 -4.957316008e-18 -8.259719573e-15) OK.
    Max cell openness = 2.090003831e-16 OK.
    Max aspect ratio = 8.824918034 OK.
    Minimum face area = 1.181361858e-05. Maximum face area = 0.0006910303.  Face area magnitudes OK.
    Min volume = 1.181361858e-07. Max volume = 6.910303e-06.  Total volume = 0.0101014855.  Cell volumes OK.
    Mesh non-orthogonality Max: 24.08573105 average: 4.94762528
    Non-orthogonality check OK.
    Face pyramids OK.
    Max skewness = 0.3790383065 OK.
    Coupled point location match (average 0) OK.

Mesh OK.

End

