/*---------------------------------------------------------------------------*\
  =========                 |
  \\      /  F ield         | OpenFOAM: The Open Source CFD Toolbox
   \\    /   O peration     | Website:  https://openfoam.org
    \\  /    A nd           | Version:  6
     \\/     M anipulation  |
\*---------------------------------------------------------------------------*/
Build  : 6-47517f2ebb1b
Exec   : blockMesh -case Solid
Date   : Mar 06 2020
Time   : 12:54:19
Host   : "debian"
PID    : 5860
I/O    : uncollated
Case   : ./Solid
nProcs : 1
sigFpe : Enabling floating point exception trapping (FOAM_SIGFPE).
fileModificationChecking : Monitoring run-time modified files using timeStampMaster (fileModificationSkew 10)
allowSystemOperations : Allowing user-supplied system call operations

// * * * * * * * * * * * * * * * * * * * * * * * * * * * * * * * * * * * * * //
Create time

Creating block mesh from
    "./Solid/system/blockMeshDict"
Creating block edges
No non-planar block faces defined
Creating topology blocks
Creating topology patches

Creating block mesh topology

Check topology

	Basic statistics
		Number of internal faces : 0
		Number of boundary faces : 6
		Number of defined boundary faces : 6
		Number of undefined boundary faces : 0
	Checking patch -> block consistency

Creating block offsets
Creating merge list .

Creating polyMesh from blockMesh
Creating patches
Creating cells
Creating points with scale 1
    Block 0 cell size :
        i : 0.014 .. 0.014
        j : 0.004 .. 0.004
        k : 0.002 .. 0.002


Writing polyMesh
----------------
Mesh Information
----------------
  boundingBox: (0.25 0.19 -0.005) (0.6 0.21 0.005)
  nPoints: 936
  nCells: 625
  nFaces: 2150
  nInternalFaces: 1600
----------------
Patches
----------------
  patch 0 (start: 1600 size: 25) name: clamp
  patch 1 (start: 1625 size: 525) name: wetsurface

End

