/*---------------------------------------------------------------------------*\
  =========                 |
  \\      /  F ield         | OpenFOAM: The Open Source CFD Toolbox
   \\    /   O peration     | Website:  https://openfoam.org
    \\  /    A nd           | Version:  6
     \\/     M anipulation  |
\*---------------------------------------------------------------------------*/
Build  : 6-47517f2ebb1b
Exec   : checkMesh -case Solid
Date   : Mar 06 2020
Time   : 12:54:19
Host   : "debian"
PID    : 5861
I/O    : uncollated
Case   : ./Solid
nProcs : 1
sigFpe : Enabling floating point exception trapping (FOAM_SIGFPE).
fileModificationChecking : Monitoring run-time modified files using timeStampMaster (fileModificationSkew 10)
allowSystemOperations : Allowing user-supplied system call operations

// * * * * * * * * * * * * * * * * * * * * * * * * * * * * * * * * * * * * * //
Create time

Create polyMesh for time = 0

Time = 0

Mesh stats
    points:           936
    faces:            2150
    internal faces:   1600
    cells:            625
    faces per cell:   6
    boundary patches: 2
    point zones:      0
    face zones:       0
    cell zones:       0

Overall number of cells of each type:
    hexahedra:     625
    prisms:        0
    wedges:        0
    pyramids:      0
    tet wedges:    0
    tetrahedra:    0
    polyhedra:     0

Checking topology...
    Boundary definition OK.
    Cell to face addressing OK.
    Point usage OK.
    Upper triangular ordering OK.
    Face vertices OK.
    Number of regions: 1 (OK).

Checking patch topology for multiply connected surfaces...
    Patch               Faces    Points   Surface topology                  
    clamp               25       36       ok (non-closed singly connected)  
    wetsurface          525      536      ok (non-closed singly connected)  

Checking geometry...
    Overall domain bounding box (0.25 0.19 -0.005) (0.6 0.21 0.005)
    Mesh has 3 geometric (non-empty/wedge) directions (1 1 1)
    Mesh has 3 solution (non-empty) directions (1 1 1)
    Boundary openness (-7.9161958e-19 3.071484e-17 -2.5015179e-17) OK.
    Max cell openness = 1.0587912e-16 OK.
    Max aspect ratio = 7 OK.
    Minimum face area = 8e-06. Maximum face area = 5.6e-05.  Face area magnitudes OK.
    Min volume = 1.12e-07. Max volume = 1.12e-07.  Total volume = 7e-05.  Cell volumes OK.
    Mesh non-orthogonality Max: 0 average: 0
    Non-orthogonality check OK.
    Face pyramids OK.
    Max skewness = 4.1633363e-14 OK.
    Coupled point location match (average 0) OK.

Mesh OK.

End

