/*---------------------------------------------------------------------------*\
  =========                 |
  \\      /  F ield         | OpenFOAM: The Open Source CFD Toolbox
   \\    /   O peration     | Website:  https://openfoam.org
    \\  /    A nd           | Version:  6
     \\/     M anipulation  |
\*---------------------------------------------------------------------------*/
Build  : 6-47517f2ebb1b
Exec   : solidFoam -case Solid
Date   : Mar 06 2020
Time   : 12:54:19
Host   : "debian"
PID    : 5867
I/O    : uncollated
Case   : ./Solid
nProcs : 1
sigFpe : Enabling floating point exception trapping (FOAM_SIGFPE).
fileModificationChecking : Monitoring run-time modified files using timeStampMaster (fileModificationSkew 10)
allowSystemOperations : Allowing user-supplied system call operations

// * * * * * * * * * * * * * * * * * * * * * * * * * * * * * * * * * * * * * //
Create time

Create mesh for time = 0

Reading dictionaries ...
Reading data from dictionaries ...
Creating mesh parameters ...
Creating mesh coordinate fields ...
Creating mesh normal fields ...
Creating linear momentum fields ...
Creating strain measure fields ...
Creating constitutive model ...
>>energy Algorithm
>>energy Algorithm OK
Creating fields for wave speeds ...
Creating fields for gradient ...
Creating fields for reconstruction ...
Creating fields for riemann solver ...
Creating fields for the constrained procedure ...
Creating fields for angular momentum ...
Creating fields for post-processing ...
Creating variables for time ...
Printing data ...

Printing material properties ...
Constitutive model = neoHookean
Density = 1100 [1 -3 0 0 0 0 0]
Young's modulus = 17000000 [1 -1 -2 0 0 0 0]
Poisson's ratio = 0.45 [0 0 0 0 0 0 0]
Lame's first parameter lambda = 52758621 [1 -1 -2 0 0 0 0]
Lame's second parameter mu = 5862069 [1 -1 -2 0 0 0 0]
Bulk modulus kappa = 56666667 [1 -1 -2 0 0 0 0]
Linear pressure wave speed = 242.1171 [0 1 -1 0 0 0 0]
Linear shear wave speed = 73.001052 [0 1 -1 0 0 0 0]

Printing global momentums ...
Global linear momentum = (0 0 0)
Global angular momentum = (0 0 0)

Centroid of geometry = (0.425 0.2 -1.4076841e-18)
---[preciceAdapter] The preciceAdapter was loaded.
Registered objects: 
45
(
rhsAm
S_t
lm_b
points
F
neighbour
controlDict
AinvLocal
J
Up
xN
rhsLm
S_lm
pointMesh
t_M
faces
x
Ainv
fvSchemes
faceZones
lm
fvSolution
energyAlgorithm
P_M
(S|magSf)
owner
lmN
data
lm_M
cellZones
boundary
(sqrt(((((nu*E)|((1+nu)*(1-(2*nu))))+(2*(E|(2*(1+nu)))))|rho))|stretch)
n
p
uN
P
((0.5*(lm_M+lm_M))+((0.5*S_t)&((P_M&(S|magSf))-t_M)))
(P_M&(S|magSf))
mechanicalProperties
((0.5*(t_M+(P_M&(S|magSf))))+((0.5*S_lm)&(lm_M-lm_M)))
t_b
H
pointZones
stretch
Us
)

---[preciceAdapter] Reading the adapter's YAML configuration file ./Solid/precice-adapter-config.yml...
---[preciceAdapter] [DEBUG] Checking the adapter's YAML configuration file...
---[preciceAdapter] [DEBUG]   participant : Solid
---[preciceAdapter] [DEBUG]   precice-config-file : precice-config.xml
---[preciceAdapter] [DEBUG]   interfaces : 
---[preciceAdapter] [DEBUG]   - mesh      : Solid-Mesh-Faces
---[preciceAdapter] [DEBUG]     locations : faceCenters
---[preciceAdapter] [DEBUG]     Provide mesh connectivity : 0
---[preciceAdapter] [DEBUG]     patches   : 
---[preciceAdapter] [DEBUG]       wetsurface
---[preciceAdapter] [DEBUG]     write-data : 
---[preciceAdapter] [DEBUG]       Force
---[preciceAdapter] [DEBUG]   - mesh      : Solid-Mesh-Nodes
---[preciceAdapter] [DEBUG]     locations : faceCenters
---[preciceAdapter] [DEBUG]     Provide mesh connectivity : 0
---[preciceAdapter] [DEBUG]     patches   : 
---[preciceAdapter] [DEBUG]       wetsurface
---[preciceAdapter] [DEBUG]     read-data : 
---[preciceAdapter] [DEBUG]       Displacement
---[preciceAdapter] [DEBUG]     subcycling : 1
---[preciceAdapter] [DEBUG]     prevent early exit : 1
---[preciceAdapter] [DEBUG]     evaluate boundaries : 1
---[preciceAdapter] [DEBUG]     disable checkpointing : 0
---[preciceAdapter] [DEBUG]     CHT module enabled : 0
---[preciceAdapter] [DEBUG]     FSI module enabled : 1
---[preciceAdapter] [DEBUG] Configuring the FSI module...
---[preciceAdapter] [DEBUG]     user-defined solver type : none
---[preciceAdapter] [DEBUG]     pointDisplacement field name : pointDisplacement
---[preciceAdapter] [DEBUG] Determining the solver type...
---[preciceAdapter] [DEBUG] Did not find the transportProperties dictionary.
---[preciceAdapter] [DEBUG] Did not find the turbulenceProperties dictionary.
---[preciceAdapter] [DEBUG] Did not find the thermophysicalProperties dictionary.
---[preciceAdapter] [DEBUG] Destroying the FSI module...
--> FOAM Warning : 
    From function bool Foam::functionObjectList::read()
    in file db/functionObjects/functionObjectList/functionObjectList.C at line 746
    Caught FatalError 
--> FOAM FATAL ERROR: 
[31mError in the preCICE adapter: [0m
Could not determine the solver type, or this is not a compatible solver: neither transport, nor turbulence properties are provided.


    From function void adapterInfo(std::__cxx11::string, std::__cxx11::string)
    in file Utilities.C at line 32.


Time step =1
Time increment = 5.782326e-06 s
Time = 5.78233e-06 s
correcting model
>>energy Algorithm
>>energy Algorithm OK
model corrected
updating variables
correcting model
>>energy Algorithm
>>energy Algorithm OK
model corrected
variables updated
Simulation completed = 0.002891163%

Time step =2
Time increment = 5.782326e-06 s
Time = 1.15647e-05 s
correcting model
>>energy Algorithm
>>energy Algorithm OK
model corrected
updating variables
correcting model
>>energy Algorithm
>>energy Algorithm OK
model corrected
variables updated
Simulation completed = 0.005782326%

Time step =3
Time increment = 5.782326e-06 s
Time = 1.7347e-05 s
correcting model
>>energy Algorithm
>>energy Algorithm OK
model corrected
updating variables
correcting model
>>energy Algorithm
>>energy Algorithm OK
model corrected
variables updated
Simulation completed = 0.008673489%

Time step =4
Time increment = 5.782326e-06 s
Time = 2.31293e-05 s
correcting model
>>energy Algorithm
>>energy Algorithm OK
model corrected
updating variables
correcting model
>>energy Algorithm
>>energy Algorithm OK
model corrected
variables updated
Simulation completed = 0.011564652%

Time step =5
Time increment = 5.782326e-06 s
Time = 2.89116e-05 s
correcting model
>>energy Algorithm
>>energy Algorithm OK
model corrected
updating variables
correcting model
>>energy Algorithm
>>energy Algorithm OK
model corrected
variables updated
Simulation completed = 0.014455815%

Time step =6
Time increment = 5.782326e-06 s
Time = 3.4694e-05 s
correcting model
>>energy Algorithm
>>energy Algorithm OK
model corrected
updating variables
correcting model
>>energy Algorithm
>>energy Algorithm OK
model corrected
variables updated
Simulation completed = 0.017346978%

Time step =7
Time increment = 5.782326e-06 s
Time = 4.04763e-05 s
correcting model
>>energy Algorithm
>>energy Algorithm OK
model corrected
updating variables
correcting model
>>energy Algorithm
>>energy Algorithm OK
model corrected
variables updated
Simulation completed = 0.020238141%

Time step =8
Time increment = 5.782326e-06 s
Time = 4.62586e-05 s
correcting model
>>energy Algorithm
>>energy Algorithm OK
model corrected
updating variables
correcting model
>>energy Algorithm
>>energy Algorithm OK
model corrected
variables updated
Simulation completed = 0.023129304%

Time step =9
Time increment = 5.782326e-06 s
Time = 5.20409e-05 s
correcting model
>>energy Algorithm
>>energy Algorithm OK
model corrected
updating variables
correcting model
>>energy Algorithm
>>energy Algorithm OK
model corrected
variables updated
Simulation completed = 0.026020467%

Time step =10
Time increment = 5.782326e-06 s
Time = 5.78233e-05 s
correcting model
>>energy Algorithm
>>energy Algorithm OK
model corrected
updating variables
correcting model
>>energy Algorithm
>>energy Algorithm OK
model corrected
variables updated
Simulation completed = 0.02891163%

Time step =11
Time increment = 5.782326e-06 s
Time = 6.36056e-05 s
correcting model
>>energy Algorithm
>>energy Algorithm OK
model corrected
updating variables
correcting model
>>energy Algorithm
>>energy Algorithm OK
model corrected
variables updated
Simulation completed = 0.031802793%

Time step =12
Time increment = 5.782326e-06 s
Time = 6.93879e-05 s
correcting model
>>energy Algorithm
>>energy Algorithm OK
model corrected
updating variables
correcting model
>>energy Algorithm
>>energy Algorithm OK
model corrected
variables updated
Simulation completed = 0.034693956%

Time step =13
Time increment = 5.782326e-06 s
Time = 7.51702e-05 s
correcting model
>>energy Algorithm
>>energy Algorithm OK
model corrected
updating variables
correcting model
>>energy Algorithm
>>energy Algorithm OK
model corrected
variables updated
Simulation completed = 0.037585119%

Time step =14
Time increment = 5.782326e-06 s
Time = 8.09526e-05 s
correcting model
>>energy Algorithm
>>energy Algorithm OK
model corrected
updating variables
correcting model
>>energy Algorithm
>>energy Algorithm OK
model corrected
variables updated
Simulation completed = 0.040476282%

Time step =15
Time increment = 5.782326e-06 s
Time = 8.67349e-05 s
correcting model
>>energy Algorithm
>>energy Algorithm OK
model corrected
updating variables
correcting model
>>energy Algorithm
>>energy Algorithm OK
model corrected
variables updated
Simulation completed = 0.043367445%

Time step =16
Time increment = 5.782326e-06 s
Time = 9.25172e-05 s
correcting model
>>energy Algorithm
>>energy Algorithm OK
model corrected
updating variables
correcting model
>>energy Algorithm
>>energy Algorithm OK
model corrected
variables updated
Simulation completed = 0.046258608%

Time step =17
Time increment = 5.782326e-06 s
Time = 9.82995e-05 s
correcting model
>>energy Algorithm
>>energy Algorithm OK
model corrected
updating variables
correcting model
>>energy Algorithm
>>energy Algorithm OK
model corrected
variables updated
Simulation completed = 0.049149771%

Time step =18
Time increment = 5.782326e-06 s
Time = 0.000104082 s
correcting model
>>energy Algorithm
>>energy Algorithm OK
model corrected
updating variables
correcting model
>>energy Algorithm
>>energy Algorithm OK
model corrected
variables updated
Simulation completed = 0.052040934%

Time step =19
Time increment = 5.782326e-06 s
Time = 0.000109864 s
correcting model
>>energy Algorithm
>>energy Algorithm OK
model corrected
updating variables
correcting model
>>energy Algorithm
>>energy Algorithm OK
model corrected
variables updated
Simulation completed = 0.054932097%

Time step =20
Time increment = 5.782326e-06 s
Time = 0.000115647 s
correcting model
>>energy Algorithm
>>energy Algorithm OK
model corrected
updating variables
correcting model
>>energy Algorithm
>>energy Algorithm OK
model corrected
variables updated
Simulation completed = 0.05782326%

Time step =21
Time increment = 5.782326e-06 s
Time = 0.000121429 s
correcting model
>>energy Algorithm
>>energy Algorithm OK
model corrected
updating variables
correcting model
>>energy Algorithm
>>energy Algorithm OK
model corrected
variables updated
Simulation completed = 0.060714423%

Time step =22
Time increment = 5.782326e-06 s
Time = 0.000127211 s
correcting model
>>energy Algorithm
>>energy Algorithm OK
model corrected
updating variables
correcting model
>>energy Algorithm
>>energy Algorithm OK
model corrected
variables updated
Simulation completed = 0.063605586%

Time step =23
Time increment = 5.782326e-06 s
Time = 0.000132993 s
correcting model
>>energy Algorithm
>>energy Algorithm OK
model corrected
updating variables
correcting model
>>energy Algorithm
>>energy Algorithm OK
model corrected
variables updated
Simulation completed = 0.066496749%

Time step =24
Time increment = 5.782326e-06 s
Time = 0.000138776 s
correcting model
>>energy Algorithm
>>energy Algorithm OK
model corrected
updating variables
correcting model
>>energy Algorithm
>>energy Algorithm OK
model corrected
variables updated
Simulation completed = 0.069387912%

Time step =25
Time increment = 5.782326e-06 s
Time = 0.000144558 s
correcting model
>>energy Algorithm
>>energy Algorithm OK
model corrected
updating variables
correcting model
>>energy Algorithm
>>energy Algorithm OK
model corrected
variables updated
Simulation completed = 0.072279075%

Time step =26
Time increment = 5.782326e-06 s
Time = 0.00015034 s
correcting model
>>energy Algorithm
>>energy Algorithm OK
model corrected
updating variables
correcting model
>>energy Algorithm
>>energy Algorithm OK
model corrected
variables updated
Simulation completed = 0.075170238%

Time step =27
Time increment = 5.782326e-06 s
Time = 0.000156123 s
correcting model
>>energy Algorithm
>>energy Algorithm OK
model corrected
updating variables
correcting model
>>energy Algorithm
>>energy Algorithm OK
model corrected
variables updated
Simulation completed = 0.078061401%

Time step =28
Time increment = 5.782326e-06 s
Time = 0.000161905 s
correcting model
>>energy Algorithm
>>energy Algorithm OK
model corrected
updating variables
correcting model
>>energy Algorithm
>>energy Algorithm OK
model corrected
variables updated
Simulation completed = 0.080952564%

Time step =29
Time increment = 5.782326e-06 s
Time = 0.000167687 s
correcting model
>>energy Algorithm
>>energy Algorithm OK
model corrected
updating variables
correcting model
>>energy Algorithm
>>energy Algorithm OK
model corrected
variables updated
Simulation completed = 0.083843727%

Time step =30
Time increment = 5.782326e-06 s
Time = 0.00017347 s
correcting model
>>energy Algorithm
>>energy Algorithm OK
model corrected
updating variables
correcting model
>>energy Algorithm
>>energy Algorithm OK
model corrected
variables updated
Simulation completed = 0.08673489%

Time step =31
Time increment = 5.782326e-06 s
Time = 0.000179252 s
correcting model
>>energy Algorithm
>>energy Algorithm OK
model corrected
updating variables
correcting model
>>energy Algorithm
>>energy Algorithm OK
model corrected
variables updated
Simulation completed = 0.089626053%

Time step =32
Time increment = 5.782326e-06 s
Time = 0.000185034 s
correcting model
>>energy Algorithm
>>energy Algorithm OK
model corrected
updating variables
correcting model
>>energy Algorithm
>>energy Algorithm OK
model corrected
variables updated
Simulation completed = 0.092517216%

Time step =33
Time increment = 5.782326e-06 s
Time = 0.000190817 s
correcting model
>>energy Algorithm
>>energy Algorithm OK
model corrected
updating variables
correcting model
>>energy Algorithm
>>energy Algorithm OK
model corrected
variables updated
Simulation completed = 0.095408379%

Time step =34
Time increment = 5.782326e-06 s
Time = 0.000196599 s
correcting model
>>energy Algorithm
>>energy Algorithm OK
model corrected
updating variables
correcting model
>>energy Algorithm
>>energy Algorithm OK
model corrected
variables updated
Simulation completed = 0.098299542%

Time step =35
Time increment = 5.782326e-06 s
Time = 0.000202381 s
correcting model
>>energy Algorithm
>>energy Algorithm OK
model corrected
updating variables
correcting model
>>energy Algorithm
>>energy Algorithm OK
model corrected
variables updated
Simulation completed = 0.10119071%

Time step =36
Time increment = 5.782326e-06 s
Time = 0.000208164 s
correcting model
>>energy Algorithm
>>energy Algorithm OK
model corrected
updating variables
correcting model
>>energy Algorithm
>>energy Algorithm OK
model corrected
variables updated
Simulation completed = 0.10408187%

Time step =37
Time increment = 5.782326e-06 s
Time = 0.000213946 s
correcting model
>>energy Algorithm
>>energy Algorithm OK
model corrected
updating variables
correcting model
>>energy Algorithm
>>energy Algorithm OK
model corrected
variables updated
Simulation completed = 0.10697303%

Time step =38
Time increment = 5.782326e-06 s
Time = 0.000219728 s
correcting model
>>energy Algorithm
>>energy Algorithm OK
model corrected
updating variables
correcting model
>>energy Algorithm
>>energy Algorithm OK
model corrected
variables updated
Simulation completed = 0.10986419%

Time step =39
Time increment = 5.782326e-06 s
Time = 0.000225511 s
correcting model
>>energy Algorithm
>>energy Algorithm OK
model corrected
updating variables
correcting model
>>energy Algorithm
>>energy Algorithm OK
model corrected
variables updated
Simulation completed = 0.11275536%

Time step =40
Time increment = 5.782326e-06 s
Time = 0.000231293 s
correcting model
>>energy Algorithm
>>energy Algorithm OK
model corrected
updating variables
correcting model
>>energy Algorithm
>>energy Algorithm OK
model corrected
variables updated
Simulation completed = 0.11564652%

Time step =41
Time increment = 5.782326e-06 s
Time = 0.000237075 s
correcting model
>>energy Algorithm
>>energy Algorithm OK
model corrected
updating variables
correcting model
>>energy Algorithm
>>energy Algorithm OK
model corrected
variables updated
Simulation completed = 0.11853768%

Time step =42
Time increment = 5.782326e-06 s
Time = 0.000242858 s
correcting model
>>energy Algorithm
>>energy Algorithm OK
model corrected
updating variables
correcting model
>>energy Algorithm
>>energy Algorithm OK
model corrected
variables updated
Simulation completed = 0.12142885%

Time step =43
Time increment = 5.782326e-06 s
Time = 0.00024864 s
correcting model
>>energy Algorithm
>>energy Algorithm OK
model corrected
updating variables
correcting model
>>energy Algorithm
>>energy Algorithm OK
model corrected
variables updated
Simulation completed = 0.12432001%

Time step =44
Time increment = 5.782326e-06 s
Time = 0.000254422 s
correcting model
>>energy Algorithm
>>energy Algorithm OK
model corrected
updating variables
correcting model
>>energy Algorithm
>>energy Algorithm OK
model corrected
variables updated
Simulation completed = 0.12721117%

Time step =45
Time increment = 5.782326e-06 s
Time = 0.000260205 s
correcting model
>>energy Algorithm
>>energy Algorithm OK
model corrected
updating variables
correcting model
>>energy Algorithm
>>energy Algorithm OK
model corrected
variables updated
Simulation completed = 0.13010234%

Time step =46
Time increment = 5.782326e-06 s
Time = 0.000265987 s
correcting model
>>energy Algorithm
>>energy Algorithm OK
model corrected
updating variables
correcting model
>>energy Algorithm
>>energy Algorithm OK
model corrected
variables updated
Simulation completed = 0.1329935%

Time step =47
Time increment = 5.782326e-06 s
Time = 0.000271769 s
correcting model
>>energy Algorithm
>>energy Algorithm OK
model corrected
updating variables
correcting model
>>energy Algorithm
>>energy Algorithm OK
model corrected
variables updated
Simulation completed = 0.13588466%

Time step =48
Time increment = 5.782326e-06 s
Time = 0.000277552 s
correcting model
>>energy Algorithm
>>energy Algorithm OK
model corrected
updating variables
correcting model
>>energy Algorithm
>>energy Algorithm OK
model corrected
variables updated
Simulation completed = 0.13877582%

Time step =49
Time increment = 5.782326e-06 s
Time = 0.000283334 s
correcting model
>>energy Algorithm
>>energy Algorithm OK
model corrected
updating variables
correcting model
>>energy Algorithm
>>energy Algorithm OK
model corrected
variables updated
Simulation completed = 0.14166699%

Time step =50
Time increment = 5.782326e-06 s
Time = 0.000289116 s
correcting model
>>energy Algorithm
>>energy Algorithm OK
model corrected
updating variables
correcting model
>>energy Algorithm
>>energy Algorithm OK
model corrected
variables updated
Simulation completed = 0.14455815%

Time step =51
Time increment = 5.782326e-06 s
Time = 0.000294899 s
correcting model
>>energy Algorithm
>>energy Algorithm OK
model corrected
updating variables
correcting model
>>energy Algorithm
>>energy Algorithm OK
model corrected
variables updated
Simulation completed = 0.14744931%

Time step =52
Time increment = 5.782326e-06 s
Time = 0.000300681 s
correcting model
>>energy Algorithm
>>energy Algorithm OK
model corrected
updating variables
correcting model
>>energy Algorithm
>>energy Algorithm OK
model corrected
variables updated
Simulation completed = 0.15034048%

Time step =53
Time increment = 5.782326e-06 s
Time = 0.000306463 s
correcting model
>>energy Algorithm
>>energy Algorithm OK
model corrected
updating variables
correcting model
>>energy Algorithm
>>energy Algorithm OK
model corrected
variables updated
Simulation completed = 0.15323164%

Time step =54
Time increment = 5.782326e-06 s
Time = 0.000312246 s
correcting model
>>energy Algorithm
>>energy Algorithm OK
model corrected
updating variables
correcting model
>>energy Algorithm
>>energy Algorithm OK
model corrected
variables updated
Simulation completed = 0.1561228%

Time step =55
Time increment = 5.782326e-06 s
Time = 0.000318028 s
correcting model
>>energy Algorithm
>>energy Algorithm OK
model corrected
updating variables
correcting model
>>energy Algorithm
>>energy Algorithm OK
model corrected
variables updated
Simulation completed = 0.15901397%

Time step =56
Time increment = 5.782326e-06 s
Time = 0.00032381 s
correcting model
>>energy Algorithm
>>energy Algorithm OK
model corrected
updating variables
correcting model
>>energy Algorithm
>>energy Algorithm OK
model corrected
variables updated
Simulation completed = 0.16190513%

Time step =57
Time increment = 5.782326e-06 s
Time = 0.000329593 s
correcting model
>>energy Algorithm
>>energy Algorithm OK
model corrected
updating variables
correcting model
>>energy Algorithm
>>energy Algorithm OK
model corrected
variables updated
Simulation completed = 0.16479629%

Time step =58
Time increment = 5.782326e-06 s
Time = 0.000335375 s
correcting model
>>energy Algorithm
>>energy Algorithm OK
model corrected
updating variables
correcting model
>>energy Algorithm
>>energy Algorithm OK
model corrected
variables updated
Simulation completed = 0.16768745%

Time step =59
Time increment = 5.782326e-06 s
Time = 0.000341157 s
correcting model
>>energy Algorithm
>>energy Algorithm OK
model corrected
updating variables
correcting model
>>energy Algorithm
>>energy Algorithm OK
model corrected
variables updated
Simulation completed = 0.17057862%

Time step =60
Time increment = 5.782326e-06 s
Time = 0.00034694 s
correcting model
>>energy Algorithm
>>energy Algorithm OK
model corrected
updating variables
correcting model
>>energy Algorithm
>>energy Algorithm OK
model corrected
variables updated
Simulation completed = 0.17346978%

Time step =61
Time increment = 5.782326e-06 s
Time = 0.000352722 s
correcting model
>>energy Algorithm
>>energy Algorithm OK
model corrected
updating variables
correcting model
>>energy Algorithm
>>energy Algorithm OK
model corrected
variables updated
Simulation completed = 0.17636094%

Time step =62
Time increment = 5.782326e-06 s
Time = 0.000358504 s
correcting model
>>energy Algorithm
>>energy Algorithm OK
model corrected
updating variables
correcting model
>>energy Algorithm
>>energy Algorithm OK
model corrected
variables updated
Simulation completed = 0.17925211%

Time step =63
Time increment = 5.782326e-06 s
Time = 0.000364287 s
correcting model
>>energy Algorithm
>>energy Algorithm OK
model corrected
updating variables
correcting model
>>energy Algorithm
>>energy Algorithm OK
model corrected
variables updated
Simulation completed = 0.18214327%

Time step =64
Time increment = 5.782326e-06 s
Time = 0.000370069 s
correcting model
>>energy Algorithm
>>energy Algorithm OK
model corrected
updating variables
correcting model
>>energy Algorithm
>>energy Algorithm OK
model corrected
variables updated
Simulation completed = 0.18503443%

Time step =65
Time increment = 5.782326e-06 s
Time = 0.000375851 s
correcting model
>>energy Algorithm
>>energy Algorithm OK
model corrected
updating variables
correcting model
>>energy Algorithm
>>energy Algorithm OK
model corrected
variables updated
Simulation completed = 0.1879256%

Time step =66
Time increment = 5.782326e-06 s
Time = 0.000381634 s
correcting model
>>energy Algorithm
>>energy Algorithm OK
model corrected
updating variables
correcting model
>>energy Algorithm
>>energy Algorithm OK
model corrected
variables updated
Simulation completed = 0.19081676%

Time step =67
Time increment = 5.782326e-06 s
Time = 0.000387416 s
correcting model
>>energy Algorithm
>>energy Algorithm OK
model corrected
updating variables
correcting model
>>energy Algorithm
>>energy Algorithm OK
model corrected
variables updated
Simulation completed = 0.19370792%

Time step =68
Time increment = 5.782326e-06 s
Time = 0.000393198 s
correcting model
>>energy Algorithm
>>energy Algorithm OK
model corrected
updating variables
correcting model
>>energy Algorithm
>>energy Algorithm OK
model corrected
variables updated
Simulation completed = 0.19659908%

Time step =69
Time increment = 5.782326e-06 s
Time = 0.00039898 s
correcting model
>>energy Algorithm
>>energy Algorithm OK
model corrected
updating variables
correcting model
>>energy Algorithm
>>energy Algorithm OK
model corrected
variables updated
Simulation completed = 0.19949025%

Time step =70
Time increment = 5.782326e-06 s
Time = 0.000404763 s
correcting model
>>energy Algorithm
>>energy Algorithm OK
model corrected
updating variables
correcting model
>>energy Algorithm
>>energy Algorithm OK
model corrected
variables updated
Simulation completed = 0.20238141%

Time step =71
Time increment = 5.782326e-06 s
Time = 0.000410545 s
correcting model
>>energy Algorithm
>>energy Algorithm OK
model corrected
updating variables
correcting model
>>energy Algorithm
>>energy Algorithm OK
model corrected
variables updated
Simulation completed = 0.20527257%

Time step =72
Time increment = 5.782326e-06 s
Time = 0.000416327 s
correcting model
>>energy Algorithm
>>energy Algorithm OK
model corrected
updating variables
correcting model
>>energy Algorithm
>>energy Algorithm OK
model corrected
variables updated
Simulation completed = 0.20816374%

Time step =73
Time increment = 5.782326e-06 s
Time = 0.00042211 s
correcting model
>>energy Algorithm
>>energy Algorithm OK
model corrected
updating variables
correcting model
>>energy Algorithm
>>energy Algorithm OK
model corrected
variables updated
Simulation completed = 0.2110549%

Time step =74
Time increment = 5.782326e-06 s
Time = 0.000427892 s
correcting model
>>energy Algorithm
>>energy Algorithm OK
model corrected
updating variables
correcting model
>>energy Algorithm
>>energy Algorithm OK
model corrected
variables updated
Simulation completed = 0.21394606%

Time step =75
Time increment = 5.782326e-06 s
Time = 0.000433674 s
correcting model
>>energy Algorithm
>>energy Algorithm OK
model corrected
updating variables
correcting model
>>energy Algorithm
>>energy Algorithm OK
model corrected
variables updated
Simulation completed = 0.21683723%

Time step =76
Time increment = 5.782326e-06 s
Time = 0.000439457 s
correcting model
>>energy Algorithm
>>energy Algorithm OK
model corrected
updating variables
correcting model
>>energy Algorithm
>>energy Algorithm OK
model corrected
variables updated
Simulation completed = 0.21972839%

Time step =77
Time increment = 5.782326e-06 s
Time = 0.000445239 s
correcting model
>>energy Algorithm
>>energy Algorithm OK
model corrected
updating variables
correcting model
>>energy Algorithm
>>energy Algorithm OK
model corrected
variables updated
Simulation completed = 0.22261955%

Time step =78
Time increment = 5.782326e-06 s
Time = 0.000451021 s
correcting model
>>energy Algorithm
>>energy Algorithm OK
model corrected
updating variables
correcting model
>>energy Algorithm
>>energy Algorithm OK
model corrected
variables updated
Simulation completed = 0.22551071%

Time step =79
Time increment = 5.782326e-06 s
Time = 0.000456804 s
correcting model
>>energy Algorithm
>>energy Algorithm OK
model corrected
updating variables
correcting model
>>energy Algorithm
>>energy Algorithm OK
model corrected
variables updated
Simulation completed = 0.22840188%

Time step =80
Time increment = 5.782326e-06 s
Time = 0.000462586 s
correcting model
>>energy Algorithm
>>energy Algorithm OK
model corrected
updating variables
correcting model
>>energy Algorithm
>>energy Algorithm OK
model corrected
variables updated
Simulation completed = 0.23129304%

Time step =81
Time increment = 5.782326e-06 s
Time = 0.000468368 s
correcting model
>>energy Algorithm
>>energy Algorithm OK
model corrected
updating variables
correcting model
>>energy Algorithm
>>energy Algorithm OK
model corrected
variables updated
Simulation completed = 0.2341842%

Time step =82
Time increment = 5.782326e-06 s
Time = 0.000474151 s
correcting model
>>energy Algorithm
>>energy Algorithm OK
model corrected
updating variables
correcting model
>>energy Algorithm
>>energy Algorithm OK
model corrected
variables updated
Simulation completed = 0.23707537%

Time step =83
Time increment = 5.782326e-06 s
Time = 0.000479933 s
correcting model
>>energy Algorithm
>>energy Algorithm OK
model corrected
updating variables
correcting model
>>energy Algorithm
>>energy Algorithm OK
model corrected
variables updated
Simulation completed = 0.23996653%

Time step =84
Time increment = 5.782326e-06 s
Time = 0.000485715 s
correcting model
>>energy Algorithm
>>energy Algorithm OK
model corrected
updating variables
correcting model
>>energy Algorithm
>>energy Algorithm OK
model corrected
variables updated
Simulation completed = 0.24285769%

Time step =85
Time increment = 5.782326e-06 s
Time = 0.000491498 s
correcting model
>>energy Algorithm
>>energy Algorithm OK
model corrected
updating variables
correcting model
>>energy Algorithm
>>energy Algorithm OK
model corrected
variables updated
Simulation completed = 0.24574886%

Time step =86
Time increment = 5.782326e-06 s
Time = 0.00049728 s
correcting model
>>energy Algorithm
>>energy Algorithm OK
model corrected
updating variables
correcting model
>>energy Algorithm
>>energy Algorithm OK
model corrected
variables updated
Simulation completed = 0.24864002%

Time step =87
Time increment = 5.782326e-06 s
Time = 0.000503062 s
correcting model
>>energy Algorithm
>>energy Algorithm OK
model corrected
updating variables
correcting model
>>energy Algorithm
>>energy Algorithm OK
model corrected
variables updated
Simulation completed = 0.25153118%

Time step =88
Time increment = 5.782326e-06 s
Time = 0.000508845 s
correcting model
>>energy Algorithm
>>energy Algorithm OK
model corrected
updating variables
correcting model
>>energy Algorithm
>>energy Algorithm OK
model corrected
variables updated
Simulation completed = 0.25442234%

Time step =89
Time increment = 5.782326e-06 s
Time = 0.000514627 s
correcting model
>>energy Algorithm
>>energy Algorithm OK
model corrected
updating variables
correcting model
>>energy Algorithm
>>energy Algorithm OK
model corrected
variables updated
Simulation completed = 0.25731351%

Time step =90
Time increment = 5.782326e-06 s
Time = 0.000520409 s
correcting model
>>energy Algorithm
>>energy Algorithm OK
model corrected
updating variables
correcting model
>>energy Algorithm
>>energy Algorithm OK
model corrected
variables updated
Simulation completed = 0.26020467%

Time step =91
Time increment = 5.782326e-06 s
Time = 0.000526192 s
correcting model
>>energy Algorithm
>>energy Algorithm OK
model corrected
updating variables
correcting model
>>energy Algorithm
>>energy Algorithm OK
model corrected
variables updated
Simulation completed = 0.26309583%

Time step =92
Time increment = 5.782326e-06 s
Time = 0.000531974 s
correcting model
>>energy Algorithm
>>energy Algorithm OK
model corrected
updating variables
correcting model
>>energy Algorithm
>>energy Algorithm OK
model corrected
variables updated
Simulation completed = 0.265987%

Time step =93
Time increment = 5.782326e-06 s
Time = 0.000537756 s
correcting model
>>energy Algorithm
>>energy Algorithm OK
model corrected
updating variables
correcting model
>>energy Algorithm
>>energy Algorithm OK
model corrected
variables updated
Simulation completed = 0.26887816%

Time step =94
Time increment = 5.782326e-06 s
Time = 0.000543539 s
correcting model
>>energy Algorithm
>>energy Algorithm OK
model corrected
updating variables
correcting model
>>energy Algorithm
>>energy Algorithm OK
model corrected
variables updated
Simulation completed = 0.27176932%

Time step =95
Time increment = 5.782326e-06 s
Time = 0.000549321 s
correcting model
>>energy Algorithm
>>energy Algorithm OK
model corrected
updating variables
correcting model
>>energy Algorithm
>>energy Algorithm OK
model corrected
variables updated
Simulation completed = 0.27466049%

Time step =96
Time increment = 5.782326e-06 s
Time = 0.000555103 s
correcting model
>>energy Algorithm
>>energy Algorithm OK
model corrected
updating variables
correcting model
>>energy Algorithm
>>energy Algorithm OK
model corrected
variables updated
Simulation completed = 0.27755165%

Time step =97
Time increment = 5.782326e-06 s
Time = 0.000560886 s
correcting model
>>energy Algorithm
>>energy Algorithm OK
model corrected
updating variables
correcting model
>>energy Algorithm
>>energy Algorithm OK
model corrected
variables updated
Simulation completed = 0.28044281%

Time step =98
Time increment = 5.782326e-06 s
Time = 0.000566668 s
correcting model
>>energy Algorithm
>>energy Algorithm OK
model corrected
updating variables
correcting model
>>energy Algorithm
>>energy Algorithm OK
model corrected
variables updated
Simulation completed = 0.28333397%

Time step =99
Time increment = 5.782326e-06 s
Time = 0.00057245 s
correcting model
>>energy Algorithm
>>energy Algorithm OK
model corrected
updating variables
correcting model
>>energy Algorithm
>>energy Algorithm OK
model corrected
variables updated
Simulation completed = 0.28622514%

Time step =100
Time increment = 5.782326e-06 s
Time = 0.000578233 s
correcting model
>>energy Algorithm
>>energy Algorithm OK
model corrected
updating variables
correcting model
>>energy Algorithm
>>energy Algorithm OK
model corrected
variables updated
Simulation completed = 0.2891163%

Time step =101
Time increment = 5.782326e-06 s
Time = 0.000584015 s
correcting model
>>energy Algorithm
>>energy Algorithm OK
model corrected
updating variables
correcting model
>>energy Algorithm
>>energy Algorithm OK
model corrected
variables updated
Simulation completed = 0.29200746%

Time step =102
Time increment = 5.782326e-06 s
Time = 0.000589797 s
correcting model
>>energy Algorithm
>>energy Algorithm OK
model corrected
updating variables
correcting model
>>energy Algorithm
>>energy Algorithm OK
model corrected
variables updated
Simulation completed = 0.29489863%

Time step =103
Time increment = 5.782326e-06 s
Time = 0.00059558 s
correcting model
>>energy Algorithm
>>energy Algorithm OK
model corrected
updating variables
correcting model
>>energy Algorithm
>>energy Algorithm OK
model corrected
variables updated
Simulation completed = 0.29778979%

Time step =104
Time increment = 5.782326e-06 s
Time = 0.000601362 s
correcting model
>>energy Algorithm
>>energy Algorithm OK
model corrected
updating variables
correcting model
>>energy Algorithm
>>energy Algorithm OK
model corrected
variables updated
Simulation completed = 0.30068095%

Time step =105
Time increment = 5.782326e-06 s
Time = 0.000607144 s
correcting model
>>energy Algorithm
>>energy Algorithm OK
model corrected
updating variables
correcting model
>>energy Algorithm
>>energy Algorithm OK
model corrected
variables updated
Simulation completed = 0.30357212%

Time step =106
Time increment = 5.782326e-06 s
Time = 0.000612927 s
correcting model
>>energy Algorithm
>>energy Algorithm OK
model corrected
updating variables
correcting model
>>energy Algorithm
>>energy Algorithm OK
model corrected
variables updated
Simulation completed = 0.30646328%

Time step =107
Time increment = 5.782326e-06 s
Time = 0.000618709 s
correcting model
>>energy Algorithm
>>energy Algorithm OK
model corrected
updating variables
correcting model
>>energy Algorithm
>>energy Algorithm OK
model corrected
variables updated
Simulation completed = 0.30935444%

Time step =108
Time increment = 5.782326e-06 s
Time = 0.000624491 s
correcting model
>>energy Algorithm
>>energy Algorithm OK
model corrected
updating variables
correcting model
>>energy Algorithm
>>energy Algorithm OK
model corrected
variables updated
Simulation completed = 0.3122456%

Time step =109
Time increment = 5.782326e-06 s
Time = 0.000630274 s
correcting model
>>energy Algorithm
>>energy Algorithm OK
model corrected
updating variables
correcting model
>>energy Algorithm
>>energy Algorithm OK
model corrected
variables updated
Simulation completed = 0.31513677%

Time step =110
Time increment = 5.782326e-06 s
Time = 0.000636056 s
correcting model
>>energy Algorithm
>>energy Algorithm OK
model corrected
updating variables
correcting model
>>energy Algorithm
>>energy Algorithm OK
model corrected
variables updated
Simulation completed = 0.31802793%

Time step =111
Time increment = 5.782326e-06 s
Time = 0.000641838 s
correcting model
>>energy Algorithm
>>energy Algorithm OK
model corrected
updating variables
correcting model
>>energy Algorithm
>>energy Algorithm OK
model corrected
variables updated
Simulation completed = 0.32091909%

Time step =112
Time increment = 5.782326e-06 s
Time = 0.000647621 s
correcting model
>>energy Algorithm
>>energy Algorithm OK
model corrected
updating variables
correcting model
>>energy Algorithm
>>energy Algorithm OK
model corrected
variables updated
Simulation completed = 0.32381026%

Time step =113
Time increment = 5.782326e-06 s
Time = 0.000653403 s
correcting model
>>energy Algorithm
>>energy Algorithm OK
model corrected
updating variables
correcting model
>>energy Algorithm
>>energy Algorithm OK
model corrected
variables updated
Simulation completed = 0.32670142%

Time step =114
Time increment = 5.782326e-06 s
Time = 0.000659185 s
correcting model
>>energy Algorithm
>>energy Algorithm OK
model corrected
updating variables
correcting model
>>energy Algorithm
>>energy Algorithm OK
model corrected
variables updated
Simulation completed = 0.32959258%

Time step =115
Time increment = 5.782326e-06 s
Time = 0.000664967 s
correcting model
>>energy Algorithm
>>energy Algorithm OK
model corrected
updating variables
correcting model
>>energy Algorithm
>>energy Algorithm OK
model corrected
variables updated
Simulation completed = 0.33248375%

Time step =116
Time increment = 5.782326e-06 s
Time = 0.00067075 s
correcting model
>>energy Algorithm
>>energy Algorithm OK
model corrected
updating variables
correcting model
>>energy Algorithm
>>energy Algorithm OK
model corrected
variables updated
Simulation completed = 0.33537491%

Time step =117
Time increment = 5.782326e-06 s
Time = 0.000676532 s
correcting model
>>energy Algorithm
>>energy Algorithm OK
model corrected
updating variables
correcting model
>>energy Algorithm
>>energy Algorithm OK
model corrected
variables updated
Simulation completed = 0.33826607%

Time step =118
Time increment = 5.782326e-06 s
Time = 0.000682314 s
correcting model
>>energy Algorithm
>>energy Algorithm OK
model corrected
updating variables
correcting model
>>energy Algorithm
>>energy Algorithm OK
model corrected
variables updated
Simulation completed = 0.34115723%

Time step =119
Time increment = 5.782326e-06 s
Time = 0.000688097 s
correcting model
>>energy Algorithm
>>energy Algorithm OK
model corrected
updating variables
correcting model
>>energy Algorithm
>>energy Algorithm OK
model corrected
variables updated
Simulation completed = 0.3440484%

Time step =120
Time increment = 5.782326e-06 s
Time = 0.000693879 s
correcting model
>>energy Algorithm
>>energy Algorithm OK
model corrected
updating variables
correcting model
>>energy Algorithm
>>energy Algorithm OK
model corrected
variables updated
Simulation completed = 0.34693956%

Time step =121
Time increment = 5.782326e-06 s
Time = 0.000699661 s
correcting model
>>energy Algorithm
>>energy Algorithm OK
model corrected
updating variables
correcting model
>>energy Algorithm
>>energy Algorithm OK
model corrected
variables updated
Simulation completed = 0.34983072%

Time step =122
Time increment = 5.782326e-06 s
Time = 0.000705444 s
correcting model
>>energy Algorithm
>>energy Algorithm OK
model corrected
updating variables
correcting model
>>energy Algorithm
>>energy Algorithm OK
model corrected
variables updated
Simulation completed = 0.35272189%

Time step =123
Time increment = 5.782326e-06 s
Time = 0.000711226 s
correcting model
>>energy Algorithm
>>energy Algorithm OK
model corrected
updating variables
correcting model
>>energy Algorithm
>>energy Algorithm OK
model corrected
variables updated
Simulation completed = 0.35561305%

Time step =124
Time increment = 5.782326e-06 s
Time = 0.000717008 s
correcting model
>>energy Algorithm
>>energy Algorithm OK
model corrected
updating variables
correcting model
>>energy Algorithm
>>energy Algorithm OK
model corrected
variables updated
Simulation completed = 0.35850421%

Time step =125
Time increment = 5.782326e-06 s
Time = 0.000722791 s
correcting model
>>energy Algorithm
>>energy Algorithm OK
model corrected
updating variables
correcting model
>>energy Algorithm
>>energy Algorithm OK
model corrected
variables updated
Simulation completed = 0.36139538%

Time step =126
Time increment = 5.782326e-06 s
Time = 0.000728573 s
correcting model
>>energy Algorithm
>>energy Algorithm OK
model corrected
updating variables
correcting model
>>energy Algorithm
>>energy Algorithm OK
model corrected
variables updated
Simulation completed = 0.36428654%

Time step =127
Time increment = 5.782326e-06 s
Time = 0.000734355 s
correcting model
>>energy Algorithm
>>energy Algorithm OK
model corrected
updating variables
correcting model
>>energy Algorithm
>>energy Algorithm OK
model corrected
variables updated
Simulation completed = 0.3671777%

Time step =128
Time increment = 5.782326e-06 s
Time = 0.000740138 s
correcting model
>>energy Algorithm
>>energy Algorithm OK
model corrected
updating variables
correcting model
>>energy Algorithm
>>energy Algorithm OK
model corrected
variables updated
Simulation completed = 0.37006886%

Time step =129
Time increment = 5.782326e-06 s
Time = 0.00074592 s
correcting model
>>energy Algorithm
>>energy Algorithm OK
model corrected
updating variables
correcting model
>>energy Algorithm
>>energy Algorithm OK
model corrected
variables updated
Simulation completed = 0.37296003%

Time step =130
Time increment = 5.782326e-06 s
Time = 0.000751702 s
correcting model
>>energy Algorithm
>>energy Algorithm OK
model corrected
updating variables
correcting model
>>energy Algorithm
>>energy Algorithm OK
model corrected
variables updated
Simulation completed = 0.37585119%

Time step =131
Time increment = 5.782326e-06 s
Time = 0.000757485 s
correcting model
>>energy Algorithm
>>energy Algorithm OK
model corrected
updating variables
correcting model
>>energy Algorithm
>>energy Algorithm OK
model corrected
variables updated
Simulation completed = 0.37874235%

Time step =132
Time increment = 5.782326e-06 s
Time = 0.000763267 s
correcting model
>>energy Algorithm
>>energy Algorithm OK
model corrected
updating variables
correcting model
>>energy Algorithm
>>energy Algorithm OK
model corrected
variables updated
Simulation completed = 0.38163352%

Time step =133
Time increment = 5.782326e-06 s
Time = 0.000769049 s
correcting model
>>energy Algorithm
>>energy Algorithm OK
model corrected
updating variables
correcting model
>>energy Algorithm
>>energy Algorithm OK
model corrected
variables updated
Simulation completed = 0.38452468%

Time step =134
Time increment = 5.782326e-06 s
Time = 0.000774832 s
correcting model
>>energy Algorithm
>>energy Algorithm OK
model corrected
updating variables
correcting model
>>energy Algorithm
>>energy Algorithm OK
model corrected
variables updated
Simulation completed = 0.38741584%

Time step =135
Time increment = 5.782326e-06 s
Time = 0.000780614 s
correcting model
>>energy Algorithm
>>energy Algorithm OK
model corrected
updating variables
correcting model
>>energy Algorithm
>>energy Algorithm OK
model corrected
variables updated
Simulation completed = 0.39030701%

Time step =136
Time increment = 5.782326e-06 s
Time = 0.000786396 s
correcting model
>>energy Algorithm
>>energy Algorithm OK
model corrected
updating variables
correcting model
>>energy Algorithm
>>energy Algorithm OK
model corrected
variables updated
Simulation completed = 0.39319817%

Time step =137
Time increment = 5.782326e-06 s
Time = 0.000792179 s
correcting model
>>energy Algorithm
>>energy Algorithm OK
model corrected
updating variables
correcting model
>>energy Algorithm
>>energy Algorithm OK
model corrected
variables updated
Simulation completed = 0.39608933%

Time step =138
Time increment = 5.782326e-06 s
Time = 0.000797961 s
correcting model
>>energy Algorithm
>>energy Algorithm OK
model corrected
updating variables
correcting model
>>energy Algorithm
>>energy Algorithm OK
model corrected
variables updated
Simulation completed = 0.39898049%

Time step =139
Time increment = 5.782326e-06 s
Time = 0.000803743 s
correcting model
>>energy Algorithm
>>energy Algorithm OK
model corrected
updating variables
correcting model
>>energy Algorithm
>>energy Algorithm OK
model corrected
variables updated
Simulation completed = 0.40187166%

Time step =140
Time increment = 5.782326e-06 s
Time = 0.000809526 s
correcting model
>>energy Algorithm
>>energy Algorithm OK
model corrected
updating variables
correcting model
>>energy Algorithm
>>energy Algorithm OK
model corrected
variables updated
Simulation completed = 0.40476282%

Time step =141
Time increment = 5.782326e-06 s
Time = 0.000815308 s
correcting model
>>energy Algorithm
>>energy Algorithm OK
model corrected
updating variables
correcting model
>>energy Algorithm
>>energy Algorithm OK
model corrected
variables updated
Simulation completed = 0.40765398%

Time step =142
Time increment = 5.782326e-06 s
Time = 0.00082109 s
correcting model
>>energy Algorithm
>>energy Algorithm OK
model corrected
updating variables
correcting model
>>energy Algorithm
>>energy Algorithm OK
model corrected
variables updated
Simulation completed = 0.41054515%

Time step =143
Time increment = 5.782326e-06 s
Time = 0.000826873 s
correcting model
>>energy Algorithm
>>energy Algorithm OK
model corrected
updating variables
correcting model
>>energy Algorithm
>>energy Algorithm OK
model corrected
variables updated
Simulation completed = 0.41343631%

Time step =144
Time increment = 5.782326e-06 s
Time = 0.000832655 s
correcting model
>>energy Algorithm
>>energy Algorithm OK
model corrected
updating variables
correcting model
>>energy Algorithm
>>energy Algorithm OK
model corrected
variables updated
Simulation completed = 0.41632747%

Time step =145
Time increment = 5.782326e-06 s
Time = 0.000838437 s
correcting model
>>energy Algorithm
>>energy Algorithm OK
model corrected
updating variables
correcting model
>>energy Algorithm
>>energy Algorithm OK
model corrected
variables updated
Simulation completed = 0.41921864%

Time step =146
Time increment = 5.782326e-06 s
Time = 0.00084422 s
correcting model
>>energy Algorithm
>>energy Algorithm OK
model corrected
updating variables
correcting model
>>energy Algorithm
>>energy Algorithm OK
model corrected
variables updated
Simulation completed = 0.4221098%

Time step =147
Time increment = 5.782326e-06 s
Time = 0.000850002 s
correcting model
>>energy Algorithm
>>energy Algorithm OK
model corrected
updating variables
correcting model
>>energy Algorithm
>>energy Algorithm OK
model corrected
variables updated
Simulation completed = 0.42500096%

Time step =148
Time increment = 5.782326e-06 s
Time = 0.000855784 s
correcting model
>>energy Algorithm
>>energy Algorithm OK
model corrected
updating variables
correcting model
>>energy Algorithm
>>energy Algorithm OK
model corrected
variables updated
Simulation completed = 0.42789212%

Time step =149
Time increment = 5.782326e-06 s
Time = 0.000861567 s
correcting model
>>energy Algorithm
>>energy Algorithm OK
model corrected
updating variables
correcting model
>>energy Algorithm
>>energy Algorithm OK
model corrected
variables updated
Simulation completed = 0.43078329%

Time step =150
Time increment = 5.782326e-06 s
Time = 0.000867349 s
correcting model
>>energy Algorithm
>>energy Algorithm OK
model corrected
updating variables
correcting model
>>energy Algorithm
>>energy Algorithm OK
model corrected
variables updated
Simulation completed = 0.43367445%

Time step =151
Time increment = 5.782326e-06 s
Time = 0.000873131 s
correcting model
>>energy Algorithm
>>energy Algorithm OK
model corrected
updating variables
correcting model
>>energy Algorithm
>>energy Algorithm OK
model corrected
variables updated
Simulation completed = 0.43656561%

Time step =152
Time increment = 5.782326e-06 s
Time = 0.000878914 s
correcting model
>>energy Algorithm
>>energy Algorithm OK
model corrected
updating variables
correcting model
>>energy Algorithm
>>energy Algorithm OK
model corrected
variables updated
Simulation completed = 0.43945678%

Time step =153
Time increment = 5.782326e-06 s
Time = 0.000884696 s
correcting model
>>energy Algorithm
>>energy Algorithm OK
model corrected
updating variables
correcting model
>>energy Algorithm
>>energy Algorithm OK
model corrected
variables updated
Simulation completed = 0.44234794%

Time step =154
Time increment = 5.782326e-06 s
Time = 0.000890478 s
correcting model
>>energy Algorithm
>>energy Algorithm OK
model corrected
updating variables
correcting model
>>energy Algorithm
>>energy Algorithm OK
model corrected
variables updated
Simulation completed = 0.4452391%

Time step =155
Time increment = 5.782326e-06 s
Time = 0.000896261 s
correcting model
>>energy Algorithm
>>energy Algorithm OK
model corrected
updating variables
correcting model
>>energy Algorithm
>>energy Algorithm OK
model corrected
variables updated
Simulation completed = 0.44813027%

Time step =156
Time increment = 5.782326e-06 s
Time = 0.000902043 s
correcting model
>>energy Algorithm
>>energy Algorithm OK
model corrected
updating variables
correcting model
>>energy Algorithm
>>energy Algorithm OK
model corrected
variables updated
Simulation completed = 0.45102143%

Time step =157
Time increment = 5.782326e-06 s
Time = 0.000907825 s
correcting model
>>energy Algorithm
>>energy Algorithm OK
model corrected
updating variables
correcting model
>>energy Algorithm
>>energy Algorithm OK
model corrected
variables updated
Simulation completed = 0.45391259%

Time step =158
Time increment = 5.782326e-06 s
Time = 0.000913608 s
correcting model
>>energy Algorithm
>>energy Algorithm OK
model corrected
updating variables
correcting model
>>energy Algorithm
>>energy Algorithm OK
model corrected
variables updated
Simulation completed = 0.45680376%

Time step =159
Time increment = 5.782326e-06 s
Time = 0.00091939 s
correcting model
>>energy Algorithm
>>energy Algorithm OK
model corrected
updating variables
correcting model
>>energy Algorithm
>>energy Algorithm OK
model corrected
variables updated
Simulation completed = 0.45969492%

Time step =160
Time increment = 5.782326e-06 s
Time = 0.000925172 s
correcting model
>>energy Algorithm
>>energy Algorithm OK
model corrected
updating variables
correcting model
>>energy Algorithm
>>energy Algorithm OK
model corrected
variables updated
Simulation completed = 0.46258608%

Time step =161
Time increment = 5.782326e-06 s
Time = 0.000930954 s
correcting model
>>energy Algorithm
>>energy Algorithm OK
model corrected
updating variables
correcting model
>>energy Algorithm
>>energy Algorithm OK
model corrected
variables updated
Simulation completed = 0.46547724%

Time step =162
Time increment = 5.782326e-06 s
Time = 0.000936737 s
correcting model
>>energy Algorithm
>>energy Algorithm OK
model corrected
updating variables
correcting model
>>energy Algorithm
>>energy Algorithm OK
model corrected
variables updated
Simulation completed = 0.46836841%

Time step =163
Time increment = 5.782326e-06 s
Time = 0.000942519 s
correcting model
>>energy Algorithm
>>energy Algorithm OK
model corrected
updating variables
correcting model
>>energy Algorithm
>>energy Algorithm OK
model corrected
variables updated
Simulation completed = 0.47125957%

Time step =164
Time increment = 5.782326e-06 s
Time = 0.000948301 s
correcting model
>>energy Algorithm
>>energy Algorithm OK
model corrected
updating variables
correcting model
>>energy Algorithm
>>energy Algorithm OK
model corrected
variables updated
Simulation completed = 0.47415073%

Time step =165
Time increment = 5.782326e-06 s
Time = 0.000954084 s
correcting model
>>energy Algorithm
>>energy Algorithm OK
model corrected
updating variables
correcting model
>>energy Algorithm
>>energy Algorithm OK
model corrected
variables updated
Simulation completed = 0.4770419%

Time step =166
Time increment = 5.782326e-06 s
Time = 0.000959866 s
correcting model
>>energy Algorithm
>>energy Algorithm OK
model corrected
updating variables
correcting model
>>energy Algorithm
>>energy Algorithm OK
model corrected
variables updated
Simulation completed = 0.47993306%

Time step =167
Time increment = 5.782326e-06 s
Time = 0.000965648 s
correcting model
>>energy Algorithm
>>energy Algorithm OK
model corrected
updating variables
correcting model
>>energy Algorithm
>>energy Algorithm OK
model corrected
variables updated
Simulation completed = 0.48282422%

Time step =168
Time increment = 5.782326e-06 s
Time = 0.000971431 s
correcting model
>>energy Algorithm
>>energy Algorithm OK
model corrected
updating variables
correcting model
>>energy Algorithm
>>energy Algorithm OK
model corrected
variables updated
Simulation completed = 0.48571539%

Time step =169
Time increment = 5.782326e-06 s
Time = 0.000977213 s
correcting model
>>energy Algorithm
>>energy Algorithm OK
model corrected
updating variables
correcting model
>>energy Algorithm
>>energy Algorithm OK
model corrected
variables updated
Simulation completed = 0.48860655%

Time step =170
Time increment = 5.782326e-06 s
Time = 0.000982995 s
correcting model
>>energy Algorithm
>>energy Algorithm OK
model corrected
updating variables
correcting model
>>energy Algorithm
>>energy Algorithm OK
model corrected
variables updated
Simulation completed = 0.49149771%

Time step =171
Time increment = 5.782326e-06 s
Time = 0.000988778 s
correcting model
>>energy Algorithm
>>energy Algorithm OK
model corrected
updating variables
correcting model
>>energy Algorithm
>>energy Algorithm OK
model corrected
variables updated
Simulation completed = 0.49438887%

Time step =172
Time increment = 5.782326e-06 s
Time = 0.00099456 s
correcting model
>>energy Algorithm
>>energy Algorithm OK
model corrected
updating variables
correcting model
>>energy Algorithm
>>energy Algorithm OK
model corrected
variables updated
Simulation completed = 0.49728004%

Time step =173
Time increment = 5.782326e-06 s
Time = 0.00100034 s
correcting model
>>energy Algorithm
>>energy Algorithm OK
model corrected
updating variables
correcting model
>>energy Algorithm
>>energy Algorithm OK
model corrected
variables updated
Simulation completed = 0.5001712%

Time step =174
Time increment = 5.782326e-06 s
Time = 0.00100612 s
correcting model
>>energy Algorithm
>>energy Algorithm OK
model corrected
updating variables
correcting model
>>energy Algorithm
>>energy Algorithm OK
model corrected
variables updated
Simulation completed = 0.50306236%

Time step =175
Time increment = 5.782326e-06 s
Time = 0.00101191 s
correcting model
>>energy Algorithm
>>energy Algorithm OK
model corrected
updating variables
correcting model
>>energy Algorithm
>>energy Algorithm OK
model corrected
variables updated
Simulation completed = 0.50595353%

Time step =176
Time increment = 5.782326e-06 s
Time = 0.00101769 s
correcting model
>>energy Algorithm
>>energy Algorithm OK
model corrected
updating variables
correcting model
>>energy Algorithm
>>energy Algorithm OK
model corrected
variables updated
Simulation completed = 0.50884469%

Time step =177
Time increment = 5.782326e-06 s
Time = 0.00102347 s
correcting model
>>energy Algorithm
>>energy Algorithm OK
model corrected
updating variables
correcting model
>>energy Algorithm
>>energy Algorithm OK
model corrected
variables updated
Simulation completed = 0.51173585%

Time step =178
Time increment = 5.782326e-06 s
Time = 0.00102925 s
correcting model
>>energy Algorithm
>>energy Algorithm OK
model corrected
updating variables
correcting model
>>energy Algorithm
>>energy Algorithm OK
model corrected
variables updated
Simulation completed = 0.51462702%

Time step =179
Time increment = 5.782326e-06 s
Time = 0.00103504 s
correcting model
>>energy Algorithm
>>energy Algorithm OK
model corrected
updating variables
correcting model
>>energy Algorithm
>>energy Algorithm OK
model corrected
variables updated
Simulation completed = 0.51751818%

Time step =180
Time increment = 5.782326e-06 s
Time = 0.00104082 s
correcting model
>>energy Algorithm
>>energy Algorithm OK
model corrected
updating variables
correcting model
>>energy Algorithm
>>energy Algorithm OK
model corrected
variables updated
Simulation completed = 0.52040934%

Time step =181
Time increment = 5.782326e-06 s
Time = 0.0010466 s
correcting model
>>energy Algorithm
>>energy Algorithm OK
model corrected
updating variables
correcting model
>>energy Algorithm
>>energy Algorithm OK
model corrected
variables updated
Simulation completed = 0.5233005%

Time step =182
Time increment = 5.782326e-06 s
Time = 0.00105238 s
correcting model
>>energy Algorithm
>>energy Algorithm OK
model corrected
updating variables
correcting model
>>energy Algorithm
>>energy Algorithm OK
model corrected
variables updated
Simulation completed = 0.52619167%

Time step =183
Time increment = 5.782326e-06 s
Time = 0.00105817 s
correcting model
>>energy Algorithm
>>energy Algorithm OK
model corrected
updating variables
correcting model
>>energy Algorithm
>>energy Algorithm OK
model corrected
variables updated
Simulation completed = 0.52908283%

Time step =184
Time increment = 5.782326e-06 s
Time = 0.00106395 s
correcting model
>>energy Algorithm
>>energy Algorithm OK
model corrected
updating variables
correcting model
>>energy Algorithm
>>energy Algorithm OK
model corrected
variables updated
Simulation completed = 0.53197399%

Time step =185
Time increment = 5.782326e-06 s
Time = 0.00106973 s
correcting model
>>energy Algorithm
>>energy Algorithm OK
model corrected
updating variables
correcting model
>>energy Algorithm
>>energy Algorithm OK
model corrected
variables updated
Simulation completed = 0.53486516%

Time step =186
Time increment = 5.782326e-06 s
Time = 0.00107551 s
correcting model
>>energy Algorithm
>>energy Algorithm OK
model corrected
updating variables
correcting model
>>energy Algorithm
>>energy Algorithm OK
model corrected
variables updated
Simulation completed = 0.53775632%

Time step =187
Time increment = 5.782326e-06 s
Time = 0.00108129 s
correcting model
>>energy Algorithm
>>energy Algorithm OK
model corrected
updating variables
correcting model
>>energy Algorithm
>>energy Algorithm OK
model corrected
variables updated
Simulation completed = 0.54064748%

Time step =188
Time increment = 5.782326e-06 s
Time = 0.00108708 s
correcting model
>>energy Algorithm
>>energy Algorithm OK
model corrected
updating variables
correcting model
>>energy Algorithm
>>energy Algorithm OK
model corrected
variables updated
Simulation completed = 0.54353865%

Time step =189
Time increment = 5.782326e-06 s
Time = 0.00109286 s
correcting model
>>energy Algorithm
>>energy Algorithm OK
model corrected
updating variables
correcting model
>>energy Algorithm
>>energy Algorithm OK
model corrected
variables updated
Simulation completed = 0.54642981%

Time step =190
Time increment = 5.782326e-06 s
Time = 0.00109864 s
correcting model
>>energy Algorithm
>>energy Algorithm OK
model corrected
updating variables
correcting model
>>energy Algorithm
>>energy Algorithm OK
model corrected
variables updated
Simulation completed = 0.54932097%

Time step =191
Time increment = 5.782326e-06 s
Time = 0.00110442 s
correcting model
>>energy Algorithm
>>energy Algorithm OK
model corrected
updating variables
correcting model
>>energy Algorithm
>>energy Algorithm OK
model corrected
variables updated
Simulation completed = 0.55221213%

Time step =192
Time increment = 5.782326e-06 s
Time = 0.00111021 s
correcting model
>>energy Algorithm
>>energy Algorithm OK
model corrected
updating variables
correcting model
>>energy Algorithm
>>energy Algorithm OK
model corrected
variables updated
Simulation completed = 0.5551033%

Time step =193
Time increment = 5.782326e-06 s
Time = 0.00111599 s
correcting model
>>energy Algorithm
>>energy Algorithm OK
model corrected
updating variables
correcting model
>>energy Algorithm
>>energy Algorithm OK
model corrected
variables updated
Simulation completed = 0.55799446%

Time step =194
Time increment = 5.782326e-06 s
Time = 0.00112177 s
correcting model
>>energy Algorithm
>>energy Algorithm OK
model corrected
updating variables
correcting model
>>energy Algorithm
>>energy Algorithm OK
model corrected
variables updated
Simulation completed = 0.56088562%

Time step =195
Time increment = 5.782326e-06 s
Time = 0.00112755 s
correcting model
>>energy Algorithm
>>energy Algorithm OK
model corrected
updating variables
correcting model
>>energy Algorithm
>>energy Algorithm OK
model corrected
variables updated
Simulation completed = 0.56377679%

Time step =196
Time increment = 5.782326e-06 s
Time = 0.00113334 s
correcting model
>>energy Algorithm
>>energy Algorithm OK
model corrected
updating variables
correcting model
>>energy Algorithm
>>energy Algorithm OK
model corrected
variables updated
Simulation completed = 0.56666795%

Time step =197
Time increment = 5.782326e-06 s
Time = 0.00113912 s
correcting model
>>energy Algorithm
>>energy Algorithm OK
model corrected
updating variables
correcting model
>>energy Algorithm
>>energy Algorithm OK
model corrected
variables updated
Simulation completed = 0.56955911%

Time step =198
Time increment = 5.782326e-06 s
Time = 0.0011449 s
correcting model
>>energy Algorithm
>>energy Algorithm OK
model corrected
updating variables
correcting model
>>energy Algorithm
>>energy Algorithm OK
model corrected
variables updated
Simulation completed = 0.57245028%

Time step =199
Time increment = 5.782326e-06 s
Time = 0.00115068 s
correcting model
>>energy Algorithm
>>energy Algorithm OK
model corrected
updating variables
correcting model
>>energy Algorithm
>>energy Algorithm OK
model corrected
variables updated
Simulation completed = 0.57534144%

Time step =200
Time increment = 5.782326e-06 s
Time = 0.00115647 s
correcting model
>>energy Algorithm
>>energy Algorithm OK
model corrected
updating variables
correcting model
>>energy Algorithm
>>energy Algorithm OK
model corrected
variables updated
Simulation completed = 0.5782326%

Time step =201
Time increment = 5.782326e-06 s
Time = 0.00116225 s
correcting model
>>energy Algorithm
>>energy Algorithm OK
model corrected
updating variables
correcting model
>>energy Algorithm
>>energy Algorithm OK
model corrected
variables updated
Simulation completed = 0.58112376%

Time step =202
Time increment = 5.782326e-06 s
Time = 0.00116803 s
correcting model
>>energy Algorithm
>>energy Algorithm OK
model corrected
updating variables
correcting model
>>energy Algorithm
>>energy Algorithm OK
model corrected
variables updated
Simulation completed = 0.58401493%

Time step =203
Time increment = 5.782326e-06 s
Time = 0.00117381 s
correcting model
>>energy Algorithm
>>energy Algorithm OK
model corrected
updating variables
correcting model
>>energy Algorithm
>>energy Algorithm OK
model corrected
variables updated
Simulation completed = 0.58690609%

Time step =204
Time increment = 5.782326e-06 s
Time = 0.00117959 s
correcting model
>>energy Algorithm
>>energy Algorithm OK
model corrected
updating variables
correcting model
>>energy Algorithm
>>energy Algorithm OK
model corrected
variables updated
Simulation completed = 0.58979725%

Time step =205
Time increment = 5.782326e-06 s
Time = 0.00118538 s
correcting model
>>energy Algorithm
>>energy Algorithm OK
model corrected
updating variables
correcting model
>>energy Algorithm
>>energy Algorithm OK
model corrected
variables updated
Simulation completed = 0.59268842%

Time step =206
Time increment = 5.782326e-06 s
Time = 0.00119116 s
correcting model
>>energy Algorithm
>>energy Algorithm OK
model corrected
updating variables
correcting model
>>energy Algorithm
>>energy Algorithm OK
model corrected
variables updated
Simulation completed = 0.59557958%

Time step =207
Time increment = 5.782326e-06 s
Time = 0.00119694 s
correcting model
>>energy Algorithm
>>energy Algorithm OK
model corrected
updating variables
correcting model
>>energy Algorithm
>>energy Algorithm OK
model corrected
variables updated
Simulation completed = 0.59847074%

Time step =208
Time increment = 5.782326e-06 s
Time = 0.00120272 s
correcting model
>>energy Algorithm
>>energy Algorithm OK
model corrected
updating variables
correcting model
>>energy Algorithm
>>energy Algorithm OK
model corrected
variables updated
Simulation completed = 0.60136191%

Time step =209
Time increment = 5.782326e-06 s
Time = 0.00120851 s
correcting model
>>energy Algorithm
>>energy Algorithm OK
model corrected
updating variables
correcting model
>>energy Algorithm
>>energy Algorithm OK
model corrected
variables updated
Simulation completed = 0.60425307%

Time step =210
Time increment = 5.782326e-06 s
Time = 0.00121429 s
correcting model
>>energy Algorithm
>>energy Algorithm OK
model corrected
updating variables
correcting model
>>energy Algorithm
>>energy Algorithm OK
model corrected
variables updated
Simulation completed = 0.60714423%

Time step =211
Time increment = 5.782326e-06 s
Time = 0.00122007 s
correcting model
>>energy Algorithm
>>energy Algorithm OK
model corrected
updating variables
correcting model
>>energy Algorithm
>>energy Algorithm OK
model corrected
variables updated
Simulation completed = 0.61003539%

Time step =212
Time increment = 5.782326e-06 s
Time = 0.00122585 s
correcting model
>>energy Algorithm
>>energy Algorithm OK
model corrected
updating variables
correcting model
>>energy Algorithm
>>energy Algorithm OK
model corrected
variables updated
Simulation completed = 0.61292656%

Time step =213
Time increment = 5.782326e-06 s
Time = 0.00123164 s
correcting model
>>energy Algorithm
>>energy Algorithm OK
model corrected
updating variables
correcting model
>>energy Algorithm
>>energy Algorithm OK
model corrected
variables updated
Simulation completed = 0.61581772%

Time step =214
Time increment = 5.782326e-06 s
Time = 0.00123742 s
correcting model
>>energy Algorithm
>>energy Algorithm OK
model corrected
updating variables
correcting model
>>energy Algorithm
>>energy Algorithm OK
model corrected
variables updated
Simulation completed = 0.61870888%

Time step =215
Time increment = 5.782326e-06 s
Time = 0.0012432 s
correcting model
>>energy Algorithm
>>energy Algorithm OK
model corrected
updating variables
correcting model
>>energy Algorithm
>>energy Algorithm OK
model corrected
variables updated
Simulation completed = 0.62160005%

Time step =216
Time increment = 5.782326e-06 s
Time = 0.00124898 s
correcting model
>>energy Algorithm
>>energy Algorithm OK
model corrected
updating variables
correcting model
>>energy Algorithm
>>energy Algorithm OK
model corrected
variables updated
Simulation completed = 0.62449121%

Time step =217
Time increment = 5.782326e-06 s
Time = 0.00125476 s
correcting model
>>energy Algorithm
>>energy Algorithm OK
model corrected
updating variables
correcting model
>>energy Algorithm
>>energy Algorithm OK
model corrected
variables updated
Simulation completed = 0.62738237%

Time step =218
Time increment = 5.782326e-06 s
Time = 0.00126055 s
correcting model
>>energy Algorithm
>>energy Algorithm OK
model corrected
updating variables
correcting model
>>energy Algorithm
>>energy Algorithm OK
model corrected
variables updated
Simulation completed = 0.63027354%

Time step =219
Time increment = 5.782326e-06 s
Time = 0.00126633 s
correcting model
>>energy Algorithm
>>energy Algorithm OK
model corrected
updating variables
correcting model
>>energy Algorithm
>>energy Algorithm OK
model corrected
variables updated
Simulation completed = 0.6331647%

Time step =220
Time increment = 5.782326e-06 s
Time = 0.00127211 s
correcting model
>>energy Algorithm
>>energy Algorithm OK
model corrected
updating variables
correcting model
>>energy Algorithm
>>energy Algorithm OK
model corrected
variables updated
Simulation completed = 0.63605586%

Time step =221
Time increment = 5.782326e-06 s
Time = 0.00127789 s
correcting model
>>energy Algorithm
>>energy Algorithm OK
model corrected
updating variables
correcting model
>>energy Algorithm
>>energy Algorithm OK
model corrected
variables updated
Simulation completed = 0.63894702%

Time step =222
Time increment = 5.782326e-06 s
Time = 0.00128368 s
correcting model
>>energy Algorithm
>>energy Algorithm OK
model corrected
updating variables
correcting model
>>energy Algorithm
>>energy Algorithm OK
model corrected
variables updated
Simulation completed = 0.64183819%

Time step =223
Time increment = 5.782326e-06 s
Time = 0.00128946 s
correcting model
>>energy Algorithm
>>energy Algorithm OK
model corrected
updating variables
correcting model
>>energy Algorithm
>>energy Algorithm OK
model corrected
variables updated
Simulation completed = 0.64472935%

Time step =224
Time increment = 5.782326e-06 s
Time = 0.00129524 s
correcting model
>>energy Algorithm
>>energy Algorithm OK
model corrected
updating variables
correcting model
>>energy Algorithm
>>energy Algorithm OK
model corrected
variables updated
Simulation completed = 0.64762051%

Time step =225
Time increment = 5.782326e-06 s
Time = 0.00130102 s
correcting model
>>energy Algorithm
>>energy Algorithm OK
model corrected
updating variables
correcting model
>>energy Algorithm
>>energy Algorithm OK
model corrected
variables updated
Simulation completed = 0.65051168%

Time step =226
Time increment = 5.782326e-06 s
Time = 0.00130681 s
correcting model
>>energy Algorithm
>>energy Algorithm OK
model corrected
updating variables
correcting model
>>energy Algorithm
>>energy Algorithm OK
model corrected
variables updated
Simulation completed = 0.65340284%

Time step =227
Time increment = 5.782326e-06 s
Time = 0.00131259 s
correcting model
>>energy Algorithm
>>energy Algorithm OK
model corrected
updating variables
correcting model
>>energy Algorithm
>>energy Algorithm OK
model corrected
variables updated
Simulation completed = 0.656294%

Time step =228
Time increment = 5.782326e-06 s
Time = 0.00131837 s
correcting model
>>energy Algorithm
>>energy Algorithm OK
model corrected
updating variables
correcting model
>>energy Algorithm
>>energy Algorithm OK
model corrected
variables updated
Simulation completed = 0.65918517%

Time step =229
Time increment = 5.782326e-06 s
Time = 0.00132415 s
correcting model
>>energy Algorithm
>>energy Algorithm OK
model corrected
updating variables
correcting model
>>energy Algorithm
>>energy Algorithm OK
model corrected
variables updated
Simulation completed = 0.66207633%

Time step =230
Time increment = 5.782326e-06 s
Time = 0.00132993 s
correcting model
>>energy Algorithm
>>energy Algorithm OK
model corrected
updating variables
correcting model
>>energy Algorithm
>>energy Algorithm OK
model corrected
variables updated
Simulation completed = 0.66496749%

Time step =231
Time increment = 5.782326e-06 s
Time = 0.00133572 s
correcting model
>>energy Algorithm
>>energy Algorithm OK
model corrected
updating variables
correcting model
>>energy Algorithm
>>energy Algorithm OK
model corrected
variables updated
Simulation completed = 0.66785865%

Time step =232
Time increment = 5.782326e-06 s
Time = 0.0013415 s
correcting model
>>energy Algorithm
>>energy Algorithm OK
model corrected
updating variables
correcting model
>>energy Algorithm
>>energy Algorithm OK
model corrected
variables updated
Simulation completed = 0.67074982%

Time step =233
Time increment = 5.782326e-06 s
Time = 0.00134728 s
correcting model
>>energy Algorithm
>>energy Algorithm OK
model corrected
updating variables
correcting model
>>energy Algorithm
>>energy Algorithm OK
model corrected
variables updated
Simulation completed = 0.67364098%

Time step =234
Time increment = 5.782326e-06 s
Time = 0.00135306 s
correcting model
>>energy Algorithm
>>energy Algorithm OK
model corrected
updating variables
correcting model
>>energy Algorithm
>>energy Algorithm OK
model corrected
variables updated
Simulation completed = 0.67653214%

Time step =235
Time increment = 5.782326e-06 s
Time = 0.00135885 s
correcting model
>>energy Algorithm
>>energy Algorithm OK
model corrected
updating variables
correcting model
>>energy Algorithm
>>energy Algorithm OK
model corrected
variables updated
Simulation completed = 0.67942331%

Time step =236
Time increment = 5.782326e-06 s
Time = 0.00136463 s
correcting model
>>energy Algorithm
>>energy Algorithm OK
model corrected
updating variables
correcting model
>>energy Algorithm
>>energy Algorithm OK
model corrected
variables updated
Simulation completed = 0.68231447%

Time step =237
Time increment = 5.782326e-06 s
Time = 0.00137041 s
correcting model
>>energy Algorithm
>>energy Algorithm OK
model corrected
updating variables
correcting model
>>energy Algorithm
>>energy Algorithm OK
model corrected
variables updated
Simulation completed = 0.68520563%

Time step =238
Time increment = 5.782326e-06 s
Time = 0.00137619 s
correcting model
>>energy Algorithm
>>energy Algorithm OK
model corrected
updating variables
correcting model
>>energy Algorithm
>>energy Algorithm OK
model corrected
variables updated
Simulation completed = 0.6880968%

Time step =239
Time increment = 5.782326e-06 s
Time = 0.00138198 s
correcting model
>>energy Algorithm
>>energy Algorithm OK
model corrected
updating variables
correcting model
>>energy Algorithm
>>energy Algorithm OK
model corrected
variables updated
Simulation completed = 0.69098796%

Time step =240
Time increment = 5.782326e-06 s
Time = 0.00138776 s
correcting model
>>energy Algorithm
>>energy Algorithm OK
model corrected
updating variables
correcting model
>>energy Algorithm
>>energy Algorithm OK
model corrected
variables updated
Simulation completed = 0.69387912%

Time step =241
Time increment = 5.782326e-06 s
Time = 0.00139354 s
correcting model
>>energy Algorithm
>>energy Algorithm OK
model corrected
updating variables
correcting model
>>energy Algorithm
>>energy Algorithm OK
model corrected
variables updated
Simulation completed = 0.69677028%

Time step =242
Time increment = 5.782326e-06 s
Time = 0.00139932 s
correcting model
>>energy Algorithm
>>energy Algorithm OK
model corrected
updating variables
correcting model
>>energy Algorithm
>>energy Algorithm OK
model corrected
variables updated
Simulation completed = 0.69966145%

Time step =243
Time increment = 5.782326e-06 s
Time = 0.00140511 s
correcting model
>>energy Algorithm
>>energy Algorithm OK
model corrected
updating variables
correcting model
>>energy Algorithm
>>energy Algorithm OK
model corrected
variables updated
Simulation completed = 0.70255261%

Time step =244
Time increment = 5.782326e-06 s
Time = 0.00141089 s
correcting model
>>energy Algorithm
>>energy Algorithm OK
model corrected
updating variables
correcting model
>>energy Algorithm
>>energy Algorithm OK
model corrected
variables updated
Simulation completed = 0.70544377%

Time step =245
Time increment = 5.782326e-06 s
Time = 0.00141667 s
correcting model
>>energy Algorithm
>>energy Algorithm OK
model corrected
updating variables
correcting model
>>energy Algorithm
>>energy Algorithm OK
model corrected
variables updated
Simulation completed = 0.70833494%

Time step =246
Time increment = 5.782326e-06 s
Time = 0.00142245 s
correcting model
>>energy Algorithm
>>energy Algorithm OK
model corrected
updating variables
correcting model
>>energy Algorithm
>>energy Algorithm OK
model corrected
variables updated
Simulation completed = 0.7112261%

Time step =247
Time increment = 5.782326e-06 s
Time = 0.00142823 s
correcting model
>>energy Algorithm
>>energy Algorithm OK
model corrected
updating variables
correcting model
>>energy Algorithm
>>energy Algorithm OK
model corrected
variables updated
Simulation completed = 0.71411726%

Time step =248
Time increment = 5.782326e-06 s
Time = 0.00143402 s
correcting model
>>energy Algorithm
>>energy Algorithm OK
model corrected
updating variables
correcting model
>>energy Algorithm
>>energy Algorithm OK
model corrected
variables updated
Simulation completed = 0.71700843%

Time step =249
Time increment = 5.782326e-06 s
Time = 0.0014398 s
correcting model
>>energy Algorithm
>>energy Algorithm OK
model corrected
updating variables
correcting model
>>energy Algorithm
>>energy Algorithm OK
model corrected
variables updated
Simulation completed = 0.71989959%

Time step =250
Time increment = 5.782326e-06 s
Time = 0.00144558 s
correcting model
>>energy Algorithm
>>energy Algorithm OK
model corrected
updating variables
correcting model
>>energy Algorithm
>>energy Algorithm OK
model corrected
variables updated
Simulation completed = 0.72279075%

Time step =251
Time increment = 5.782326e-06 s
Time = 0.00145136 s
correcting model
>>energy Algorithm
>>energy Algorithm OK
model corrected
updating variables
correcting model
>>energy Algorithm
>>energy Algorithm OK
model corrected
variables updated
Simulation completed = 0.72568191%

Time step =252
Time increment = 5.782326e-06 s
Time = 0.00145715 s
correcting model
>>energy Algorithm
>>energy Algorithm OK
model corrected
updating variables
correcting model
>>energy Algorithm
>>energy Algorithm OK
model corrected
variables updated
Simulation completed = 0.72857308%

Time step =253
Time increment = 5.782326e-06 s
Time = 0.00146293 s
correcting model
>>energy Algorithm
>>energy Algorithm OK
model corrected
updating variables
correcting model
>>energy Algorithm
>>energy Algorithm OK
model corrected
variables updated
Simulation completed = 0.73146424%

Time step =254
Time increment = 5.782326e-06 s
Time = 0.00146871 s
correcting model
>>energy Algorithm
>>energy Algorithm OK
model corrected
updating variables
correcting model
>>energy Algorithm
>>energy Algorithm OK
model corrected
variables updated
Simulation completed = 0.7343554%

Time step =255
Time increment = 5.782326e-06 s
Time = 0.00147449 s
correcting model
>>energy Algorithm
>>energy Algorithm OK
model corrected
updating variables
correcting model
>>energy Algorithm
>>energy Algorithm OK
model corrected
variables updated
Simulation completed = 0.73724657%

Time step =256
Time increment = 5.782326e-06 s
Time = 0.00148028 s
correcting model
>>energy Algorithm
>>energy Algorithm OK
model corrected
updating variables
correcting model
>>energy Algorithm
>>energy Algorithm OK
model corrected
variables updated
Simulation completed = 0.74013773%

Time step =257
Time increment = 5.782326e-06 s
Time = 0.00148606 s
correcting model
>>energy Algorithm
>>energy Algorithm OK
model corrected
updating variables
correcting model
>>energy Algorithm
>>energy Algorithm OK
model corrected
variables updated
Simulation completed = 0.74302889%

Time step =258
Time increment = 5.782326e-06 s
Time = 0.00149184 s
correcting model
>>energy Algorithm
>>energy Algorithm OK
model corrected
updating variables
correcting model
>>energy Algorithm
>>energy Algorithm OK
model corrected
variables updated
Simulation completed = 0.74592006%

Time step =259
Time increment = 5.782326e-06 s
Time = 0.00149762 s
correcting model
>>energy Algorithm
>>energy Algorithm OK
model corrected
updating variables
correcting model
>>energy Algorithm
>>energy Algorithm OK
model corrected
variables updated
Simulation completed = 0.74881122%

Time step =260
Time increment = 5.782326e-06 s
Time = 0.0015034 s
correcting model
>>energy Algorithm
>>energy Algorithm OK
model corrected
updating variables
correcting model
>>energy Algorithm
>>energy Algorithm OK
[...]
model corrected
variables updated
Simulation completed = 4.7819836%

Time step =1655
Time increment = 5.782326e-06 s
Time = 0.00956975 s
correcting model
>>energy Algorithm
>>energy Algorithm OK
model corrected
updating variables
correcting model
>>energy Algorithm
>>energy Algorithm OK
model corrected
variables updated
Simulation completed = 4.7848748%

Time step =1656
Time increment = 5.782326e-06 s
Time = 0.00957553 s
correcting model
>>energy Algorithm
>>energy Algorithm OK
model corrected
updating variables
correcting model
>>energy Algorithm
>>energy Algorithm OK
model corrected
variables updated
Simulation completed = 4.7877659%

Time step =1657
Time increment = 5.782326e-06 s
Time = 0.00958131 s
correcting model
>>energy Algorithm
>>energy Algorithm OK
model corrected
updating variables
correcting model
>>energy Algorithm
>>energy Algorithm OK
model corrected
variables updated
Simulation completed = 4.7906571%

Time step =1658
Time increment = 5.782326e-06 s
Time = 0.0095871 s
correcting model
>>energy Algorithm
>>energy Algorithm OK
model corrected
updating variables
correcting model
>>energy Algorithm
>>energy Algorithm OK
model corrected
variables updated
Simulation completed = 4.7935483%

Time step =1659
Time increment = 5.782326e-06 s
Time = 0.00959288 s
correcting model
>>energy Algorithm
>>energy Algorithm OK
model corrected
updating variables
correcting model
>>energy Algorithm
>>energy Algorithm OK
model corrected
variables updated
Simulation completed = 4.7964394%

Time step =1660
Time increment = 5.782326e-06 s
Time = 0.00959866 s
correcting model
>>energy Algorithm
>>energy Algorithm OK
model corrected
updating variables
correcting model
>>energy Algorithm
>>energy Algorithm OK
model corrected
variables updated
Simulation completed = 4.7993306%

Time step =1661
Time increment = 5.782326e-06 s
Time = 0.00960444 s
correcting model
>>energy Algorithm
>>energy Algorithm OK
model corrected
updating variables
correcting model
>>energy Algorithm
>>energy Algorithm OK
model corrected
variables updated
Simulation completed = 4.8022218%

Time step =1662
Time increment = 5.782326e-06 s
Time = 0.00961023 s
correcting model
>>energy Algorithm
>>energy Algorithm OK
model corrected
updating variables
correcting model
>>energy Algorithm
>>energy Algorithm OK
model corrected
variables updated
Simulation completed = 4.8051129%

Time step =1663
Time increment = 5.782326e-06 s
Time = 0.00961601 s
correcting model
>>energy Algorithm
>>energy Algorithm OK
model corrected
updating variables
correcting model
>>energy Algorithm
>>energy Algorithm OK
model corrected
variables updated
Simulation completed = 4.8080041%

Time step =1664
Time increment = 5.782326e-06 s
Time = 0.00962179 s
correcting model
>>energy Algorithm
>>energy Algorithm OK
model corrected
updating variables
correcting model
>>energy Algorithm
>>energy Algorithm OK
model corrected
variables updated
Simulation completed = 4.8108952%

Time step =1665
Time increment = 5.782326e-06 s
Time = 0.00962757 s
correcting model
>>energy Algorithm
>>energy Algorithm OK
model corrected
updating variables
correcting model
>>energy Algorithm
>>energy Algorithm OK
model corrected
variables updated
Simulation completed = 4.8137864%

Time step =1666
Time increment = 5.782326e-06 s
Time = 0.00963336 s
correcting model
>>energy Algorithm
>>energy Algorithm OK
model corrected
updating variables
correcting model
>>energy Algorithm
>>energy Algorithm OK
model corrected
variables updated
Simulation completed = 4.8166776%

Time step =1667
Time increment = 5.782326e-06 s
Time = 0.00963914 s
correcting model
>>energy Algorithm
>>energy Algorithm OK
model corrected
updating variables
correcting model
>>energy Algorithm
>>energy Algorithm OK
model corrected
variables updated
Simulation completed = 4.8195687%

Time step =1668
Time increment = 5.782326e-06 s
Time = 0.00964492 s
correcting model
>>energy Algorithm
>>energy Algorithm OK
model corrected
updating variables
correcting model
>>energy Algorithm
>>energy Algorithm OK
model corrected
variables updated
Simulation completed = 4.8224599%

Time step =1669
Time increment = 5.782326e-06 s
Time = 0.0096507 s
correcting model
>>energy Algorithm
>>energy Algorithm OK
model corrected
updating variables
correcting model
>>energy Algorithm
>>energy Algorithm OK
model corrected
variables updated
Simulation completed = 4.8253511%

Time step =1670
Time increment = 5.782326e-06 s
Time = 0.00965648 s
correcting model
>>energy Algorithm
>>energy Algorithm OK
model corrected
updating variables
correcting model
>>energy Algorithm
>>energy Algorithm OK
model corrected
variables updated
Simulation completed = 4.8282422%

Time step =1671
Time increment = 5.782326e-06 s
Time = 0.00966227 s
correcting model
>>energy Algorithm
>>energy Algorithm OK
model corrected
updating variables
correcting model
>>energy Algorithm
>>energy Algorithm OK
model corrected
variables updated
Simulation completed = 4.8311334%

Time step =1672
Time increment = 5.782326e-06 s
Time = 0.00966805 s
correcting model
>>energy Algorithm
>>energy Algorithm OK
model corrected
updating variables
correcting model
>>energy Algorithm
>>energy Algorithm OK
model corrected
variables updated
Simulation completed = 4.8340245%

Time step =1673
Time increment = 5.782326e-06 s
Time = 0.00967383 s
correcting model
>>energy Algorithm
>>energy Algorithm OK
model corrected
updating variables
correcting model
>>energy Algorithm
>>energy Algorithm OK
model corrected
variables updated
Simulation completed = 4.8369157%

Time step =1674
Time increment = 5.782326e-06 s
Time = 0.00967961 s
correcting model
>>energy Algorithm
>>energy Algorithm OK
model corrected
updating variables
correcting model
>>energy Algorithm
>>energy Algorithm OK
model corrected
variables updated
Simulation completed = 4.8398069%

Time step =1675
Time increment = 5.782326e-06 s
Time = 0.0096854 s
correcting model
>>energy Algorithm
>>energy Algorithm OK
model corrected
updating variables
correcting model
>>energy Algorithm
>>energy Algorithm OK
model corrected
variables updated
Simulation completed = 4.842698%

Time step =1676
Time increment = 5.782326e-06 s
Time = 0.00969118 s
correcting model
>>energy Algorithm
>>energy Algorithm OK
model corrected
updating variables
correcting model
>>energy Algorithm
>>energy Algorithm OK
model corrected
variables updated
Simulation completed = 4.8455892%

Time step =1677
Time increment = 5.782326e-06 s
Time = 0.00969696 s
correcting model
>>energy Algorithm
>>energy Algorithm OK
model corrected
updating variables
correcting model
>>energy Algorithm
>>energy Algorithm OK
model corrected
variables updated
Simulation completed = 4.8484804%

Time step =1678
Time increment = 5.782326e-06 s
Time = 0.00970274 s
correcting model
>>energy Algorithm
>>energy Algorithm OK
model corrected
updating variables
correcting model
>>energy Algorithm
>>energy Algorithm OK
model corrected
variables updated
Simulation completed = 4.8513715%

Time step =1679
Time increment = 5.782326e-06 s
Time = 0.00970853 s
correcting model
>>energy Algorithm
>>energy Algorithm OK
model corrected
updating variables
correcting model
>>energy Algorithm
>>energy Algorithm OK
model corrected
variables updated
Simulation completed = 4.8542627%

Time step =1680
Time increment = 5.782326e-06 s
Time = 0.00971431 s
correcting model
>>energy Algorithm
>>energy Algorithm OK
model corrected
updating variables
correcting model
>>energy Algorithm
>>energy Algorithm OK
model corrected
variables updated
Simulation completed = 4.8571539%

Time step =1681
Time increment = 5.782326e-06 s
Time = 0.00972009 s
correcting model
>>energy Algorithm
>>energy Algorithm OK
model corrected
updating variables
correcting model
>>energy Algorithm
>>energy Algorithm OK
model corrected
variables updated
Simulation completed = 4.860045%

Time step =1682
Time increment = 5.782326e-06 s
Time = 0.00972587 s
correcting model
>>energy Algorithm
>>energy Algorithm OK
model corrected
updating variables
correcting model
>>energy Algorithm
>>energy Algorithm OK
model corrected
variables updated
Simulation completed = 4.8629362%

Time step =1683
Time increment = 5.782326e-06 s
Time = 0.00973165 s
correcting model
>>energy Algorithm
>>energy Algorithm OK
model corrected
updating variables
correcting model
>>energy Algorithm
>>energy Algorithm OK
model corrected
variables updated
Simulation completed = 4.8658273%

Time step =1684
Time increment = 5.782326e-06 s
Time = 0.00973744 s
correcting model
>>energy Algorithm
>>energy Algorithm OK
model corrected
updating variables
correcting model
>>energy Algorithm
>>energy Algorithm OK
model corrected
variables updated
Simulation completed = 4.8687185%

Time step =1685
Time increment = 5.782326e-06 s
Time = 0.00974322 s
correcting model
>>energy Algorithm
>>energy Algorithm OK
model corrected
updating variables
correcting model
>>energy Algorithm
>>energy Algorithm OK
model corrected
variables updated
Simulation completed = 4.8716097%

Time step =1686
Time increment = 5.782326e-06 s
Time = 0.009749 s
correcting model
>>energy Algorithm
>>energy Algorithm OK
model corrected
updating variables
correcting model
>>energy Algorithm
>>energy Algorithm OK
model corrected
variables updated
Simulation completed = 4.8745008%

Time step =1687
Time increment = 5.782326e-06 s
Time = 0.00975478 s
correcting model
>>energy Algorithm
>>energy Algorithm OK
model corrected
updating variables
correcting model
>>energy Algorithm
>>energy Algorithm OK
model corrected
variables updated
Simulation completed = 4.877392%

Time step =1688
Time increment = 5.782326e-06 s
Time = 0.00976057 s
correcting model
>>energy Algorithm
>>energy Algorithm OK
model corrected
updating variables
correcting model
>>energy Algorithm
>>energy Algorithm OK
model corrected
variables updated
Simulation completed = 4.8802832%

Time step =1689
Time increment = 5.782326e-06 s
Time = 0.00976635 s
correcting model
>>energy Algorithm
>>energy Algorithm OK
model corrected
updating variables
correcting model
>>energy Algorithm
>>energy Algorithm OK
model corrected
variables updated
Simulation completed = 4.8831743%

Time step =1690
Time increment = 5.782326e-06 s
Time = 0.00977213 s
correcting model
>>energy Algorithm
>>energy Algorithm OK
model corrected
updating variables
correcting model
>>energy Algorithm
>>energy Algorithm OK
model corrected
variables updated
Simulation completed = 4.8860655%

Time step =1691
Time increment = 5.782326e-06 s
Time = 0.00977791 s
correcting model
>>energy Algorithm
>>energy Algorithm OK
model corrected
updating variables
correcting model
>>energy Algorithm
>>energy Algorithm OK
model corrected
variables updated
Simulation completed = 4.8889566%

Time step =1692
Time increment = 5.782326e-06 s
Time = 0.0097837 s
correcting model
>>energy Algorithm
>>energy Algorithm OK
model corrected
updating variables
correcting model
>>energy Algorithm
>>energy Algorithm OK
model corrected
variables updated
Simulation completed = 4.8918478%

Time step =1693
Time increment = 5.782326e-06 s
Time = 0.00978948 s
correcting model
>>energy Algorithm
>>energy Algorithm OK
model corrected
updating variables
correcting model
>>energy Algorithm
>>energy Algorithm OK
model corrected
variables updated
Simulation completed = 4.894739%

Time step =1694
Time increment = 5.782326e-06 s
Time = 0.00979526 s
correcting model
>>energy Algorithm
>>energy Algorithm OK
model corrected
updating variables
correcting model
>>energy Algorithm
>>energy Algorithm OK
model corrected
variables updated
Simulation completed = 4.8976301%

Time step =1695
Time increment = 5.782326e-06 s
Time = 0.00980104 s
correcting model
>>energy Algorithm
>>energy Algorithm OK
model corrected
updating variables
correcting model
>>energy Algorithm
>>energy Algorithm OK
model corrected
variables updated
Simulation completed = 4.9005213%

Time step =1696
Time increment = 5.782326e-06 s
Time = 0.00980682 s
correcting model
>>energy Algorithm
>>energy Algorithm OK
model corrected
updating variables
correcting model
>>energy Algorithm
>>energy Algorithm OK
model corrected
variables updated
Simulation completed = 4.9034125%

Time step =1697
Time increment = 5.782326e-06 s
Time = 0.00981261 s
correcting model
>>energy Algorithm
>>energy Algorithm OK
model corrected
updating variables
correcting model
>>energy Algorithm
>>energy Algorithm OK
model corrected
variables updated
Simulation completed = 4.9063036%

Time step =1698
Time increment = 5.782326e-06 s
Time = 0.00981839 s
correcting model
>>energy Algorithm
>>energy Algorithm OK
model corrected
updating variables
correcting model
>>energy Algorithm
>>energy Algorithm OK
model corrected
variables updated
Simulation completed = 4.9091948%

Time step =1699
Time increment = 5.782326e-06 s
Time = 0.00982417 s
correcting model
>>energy Algorithm
>>energy Algorithm OK
model corrected
updating variables
correcting model
>>energy Algorithm
>>energy Algorithm OK
model corrected
variables updated
Simulation completed = 4.9120859%

Time step =1700
Time increment = 5.782326e-06 s
Time = 0.00982995 s
correcting model
>>energy Algorithm
>>energy Algorithm OK
model corrected
updating variables
correcting model
>>energy Algorithm
>>energy Algorithm OK
model corrected
variables updated
Simulation completed = 4.9149771%

Time step =1701
Time increment = 5.782326e-06 s
Time = 0.00983574 s
correcting model
>>energy Algorithm
>>energy Algorithm OK
model corrected
updating variables
correcting model
>>energy Algorithm
>>energy Algorithm OK
model corrected
variables updated
Simulation completed = 4.9178683%

Time step =1702
Time increment = 5.782326e-06 s
Time = 0.00984152 s
correcting model
>>energy Algorithm
>>energy Algorithm OK
model corrected
updating variables
correcting model
>>energy Algorithm
>>energy Algorithm OK
model corrected
variables updated
Simulation completed = 4.9207594%

Time step =1703
Time increment = 5.782326e-06 s
Time = 0.0098473 s
correcting model
>>energy Algorithm
>>energy Algorithm OK
model corrected
updating variables
correcting model
>>energy Algorithm
>>energy Algorithm OK
model corrected
variables updated
Simulation completed = 4.9236506%

Time step =1704
Time increment = 5.782326e-06 s
Time = 0.00985308 s
correcting model
>>energy Algorithm
>>energy Algorithm OK
model corrected
updating variables
correcting model
>>energy Algorithm
>>energy Algorithm OK
model corrected
variables updated
Simulation completed = 4.9265418%

Time step =1705
Time increment = 5.782326e-06 s
Time = 0.00985887 s
correcting model
>>energy Algorithm
>>energy Algorithm OK
model corrected
updating variables
correcting model
>>energy Algorithm
>>energy Algorithm OK
model corrected
variables updated
Simulation completed = 4.9294329%

Time step =1706
Time increment = 5.782326e-06 s
Time = 0.00986465 s
correcting model
>>energy Algorithm
>>energy Algorithm OK
model corrected
updating variables
correcting model
>>energy Algorithm
>>energy Algorithm OK
model corrected
variables updated
Simulation completed = 4.9323241%

Time step =1707
Time increment = 5.782326e-06 s
Time = 0.00987043 s
correcting model
>>energy Algorithm
>>energy Algorithm OK
model corrected
updating variables
correcting model
>>energy Algorithm
>>energy Algorithm OK
model corrected
variables updated
Simulation completed = 4.9352153%

Time step =1708
Time increment = 5.782326e-06 s
Time = 0.00987621 s
correcting model
>>energy Algorithm
>>energy Algorithm OK
model corrected
updating variables
correcting model
>>energy Algorithm
>>energy Algorithm OK
model corrected
variables updated
Simulation completed = 4.9381064%

Time step =1709
Time increment = 5.782326e-06 s
Time = 0.009882 s
correcting model
>>energy Algorithm
>>energy Algorithm OK
model corrected
updating variables
correcting model
>>energy Algorithm
>>energy Algorithm OK
model corrected
variables updated
Simulation completed = 4.9409976%

Time step =1710
Time increment = 5.782326e-06 s
Time = 0.00988778 s
correcting model
>>energy Algorithm
>>energy Algorithm OK
model corrected
updating variables
correcting model
>>energy Algorithm
>>energy Algorithm OK
model corrected
variables updated
Simulation completed = 4.9438887%

Time step =1711
Time increment = 5.782326e-06 s
Time = 0.00989356 s
correcting model
>>energy Algorithm
>>energy Algorithm OK
model corrected
updating variables
correcting model
>>energy Algorithm
>>energy Algorithm OK
model corrected
variables updated
Simulation completed = 4.9467799%

Time step =1712
Time increment = 5.782326e-06 s
Time = 0.00989934 s
correcting model
>>energy Algorithm
>>energy Algorithm OK
model corrected
updating variables
correcting model
>>energy Algorithm
>>energy Algorithm OK
model corrected
variables updated
Simulation completed = 4.9496711%

Time step =1713
Time increment = 5.782326e-06 s
Time = 0.00990512 s
correcting model
>>energy Algorithm
>>energy Algorithm OK
model corrected
updating variables
correcting model
>>energy Algorithm
>>energy Algorithm OK
model corrected
variables updated
Simulation completed = 4.9525622%

Time step =1714
Time increment = 5.782326e-06 s
Time = 0.00991091 s
correcting model
>>energy Algorithm
>>energy Algorithm OK
model corrected
updating variables
correcting model
>>energy Algorithm
>>energy Algorithm OK
model corrected
variables updated
Simulation completed = 4.9554534%

Time step =1715
Time increment = 5.782326e-06 s
Time = 0.00991669 s
correcting model
>>energy Algorithm
>>energy Algorithm OK
model corrected
updating variables
correcting model
>>energy Algorithm
>>energy Algorithm OK
model corrected
variables updated
Simulation completed = 4.9583446%

Time step =1716
Time increment = 5.782326e-06 s
Time = 0.00992247 s
correcting model
>>energy Algorithm
>>energy Algorithm OK
model corrected
updating variables
correcting model
>>energy Algorithm
>>energy Algorithm OK
model corrected
variables updated
Simulation completed = 4.9612357%

Time step =1717
Time increment = 5.782326e-06 s
Time = 0.00992825 s
correcting model
>>energy Algorithm
>>energy Algorithm OK
model corrected
updating variables
correcting model
>>energy Algorithm
>>energy Algorithm OK
model corrected
variables updated
Simulation completed = 4.9641269%

Time step =1718
Time increment = 5.782326e-06 s
Time = 0.00993404 s
correcting model
>>energy Algorithm
>>energy Algorithm OK
model corrected
updating variables
correcting model
>>energy Algorithm
>>energy Algorithm OK
model corrected
variables updated
Simulation completed = 4.967018%

Time step =1719
Time increment = 5.782326e-06 s
Time = 0.00993982 s
correcting model
>>energy Algorithm
>>energy Algorithm OK
model corrected
updating variables
correcting model
>>energy Algorithm
>>energy Algorithm OK
model corrected
variables updated
Simulation completed = 4.9699092%

Time step =1720
Time increment = 5.782326e-06 s
Time = 0.0099456 s
correcting model
>>energy Algorithm
>>energy Algorithm OK
model corrected
updating variables
correcting model
>>energy Algorithm
>>energy Algorithm OK
model corrected
variables updated
Simulation completed = 4.9728004%

Time step =1721
Time increment = 5.782326e-06 s
Time = 0.00995138 s
correcting model
>>energy Algorithm
>>energy Algorithm OK
model corrected
updating variables
correcting model
>>energy Algorithm
>>energy Algorithm OK
model corrected
variables updated
Simulation completed = 4.9756915%

Time step =1722
Time increment = 5.782326e-06 s
Time = 0.00995717 s
correcting model
>>energy Algorithm
>>energy Algorithm OK
model corrected
updating variables
correcting model
>>energy Algorithm
>>energy Algorithm OK
model corrected
variables updated
Simulation completed = 4.9785827%

Time step =1723
Time increment = 5.782326e-06 s
Time = 0.00996295 s
correcting model
>>energy Algorithm
>>energy Algorithm OK
model corrected
updating variables
correcting model
>>energy Algorithm
>>energy Algorithm OK
model corrected
variables updated
Simulation completed = 4.9814739%

Time step =1724
Time increment = 5.782326e-06 s
Time = 0.00996873 s
